-------------------------------------------------------
          Amber 22 PMEMD                              2022
          -------------------------------------------------------

  [-O]verwriting output

File Assignments:

 Here is the input file:

&cntrl
   ntx = 5,
   ntwx = 5000, ntwe = 0, ntwr = 500,
   ntpr = 5000,

   ioutfm=0, ntxo=1,

   imin = 0, nstlim = 2500000, dt = 0.002,

   ntt = 3, gamma_ln=1., temp0 = 300.0,
   nscm = 1000, ig = -1, irest = 1,

   ntc= 2, ntf = 2, cut = 1000,

   igb=8, gbsa=3, surften=0.007, ntb = 0,
   saltcon=0.,

   ntr=1, restraintmask="@CA,N,C,O",
   restraint_wt=0.1,
 /

Note: ig = -1. Setting random seed to   517032 based on wallclock time in
      microseconds.

--------------------------------------------------------------------------------
   1.  RESOURCE   USE:
--------------------------------------------------------------------------------

 NATOM  =    1416 NTYPES =      14 NBONH =     702 MBONA  =     731
 NTHETH =    1592 MTHETA =     994 NPHIH =    3272 MPHIA  =    3117
 NHPARM =       0 NPARM  =       0 NNB   =    7828 NRES   =      88
 NBONA  =     731 NTHETA =     994 NPHIA =    3117 NUMBND =      63
 NUMANG =     147 NPTRA  =     181 NATYP =      32 NPHB   =       0
 IFBOX  =       0 NMXRS  =      25 IFCAP =       0 NEXTRA =       0
 NCOPY  =       0

 Implicit solvent radii are ArgH and AspGluO modified Bondi2 radii (mbondi3)
 Replacing prmtop screening parameters with GBn2 (igb=8) values
--------------------------------------------------------------------------------
   2.  CONTROL  DATA  FOR  THE  RUN
--------------------------------------------------------------------------------

default_name

General flags:
     imin    =       0, nmropt  =       0

Nature and format of input:
     ntx     =       5, irest   =       1, ntrx    =       1

Nature and format of output:
     ntxo    =       1, ntpr    =    5000, ntrx    =       1, ntwr    =     500
     iwrap   =       0, ntwx    =    5000, ntwv    =       0, ntwe    =       0
     ioutfm  =       0, ntwprt  =       0, idecomp =       0, rbornstat=      0

Potential function:
     ntf     =       2, ntb     =       0, igb     =       8, nsnb    =      25
     ipol    =       0, gbsa    =       3, iesp    =       0
     dielc   =   1.00000, cut     =1000.00000, intdiel =   1.00000
     saltcon =   0.00000, offset  =   0.19514, surften =   0.00700
     rdt     =   0.00000, rgbmax  =  25.00000  extdiel =  78.50000
     alpb  =        0
     gbalphaH  =   0.78844, gbbetaH   =   0.79870,  gbgammaH  =    0.43733
     gbalphaC  =   0.73376, gbbetaC   =   0.50638,  gbgammaC  =    0.20584
     gbalphaN  =   0.50336, gbbetaN   =   0.31683,  gbgammaN  =    0.19292
     gbalphaOS =   0.86781, gbbetaOS  =   0.87664,  gbgammaOS =    0.38788
     gbalphaP  =   1.00000, gbbetaP   =   0.80000,  gbgammaP  =    4.85000
     gb_alpha_hnu  =   0.53705, gb_beta_hnu   =   0.36286,  gb_gamma_hnu  =    0.11670
     gb_alpha_cnu  =   0.33167, gb_beta_cnu   =   0.19684,  gb_gamma_cnu  =    0.09342
     gb_alpha_nnu  =   0.68631, gb_beta_nnu   =   0.46319,  gb_gamma_nnu  =    0.13872
     gb_alpha_onu  =   0.60634, gb_beta_onu   =   0.46301,  gb_gamma_onu  =    0.14226
     gb_alpha_pnu  =   0.41836, gb_beta_pnu   =   0.29005,  gb_gamma_pnu  =    0.10642

Frozen or restrained atoms:
     ibelly  =       0, ntr     =       1
     restraint_wt =   0.10000

Molecular dynamics:
     nstlim  =   2500000, nscm    =         0, nrespa  =         1
     t       =   0.00000, dt      =   0.00200, vlimit  =  20.00000

Langevin dynamics temperature regulation:
     ig      =  517032
     temp0   = 300.00000, tempi   =   0.00000, gamma_ln=   1.00000

SHAKE:
     ntc     =       2, jfastw  =       0
     tol     =   0.00001

    LOADING THE CONSTRAINED ATOMS AS GROUPS

   5.  REFERENCE ATOM COORDINATES

  default_name
     Mask @CA,N,C,O; matches   352 atoms

--------------------------------------------------------------------------------
   3.  ATOMIC COORDINATES AND VELOCITIES
--------------------------------------------------------------------------------

default_name
 begin time read from input coords =  1500.000 ps

 Number of triangulated 3-point waters found:        0

--------------------------------------------------------------------------------
   4.  RESULTS
 NSTEP =     5000   TIME(PS) =    1510.000  TEMP(K) =   298.65  PRESS =     0.0
 Etot   =     -1795.3253  EKtot   =      1052.2291  EPtot      =     -2847.5543
 BOND   =       290.0743  ANGLE   =       737.5864  DIHED      =      1141.2280
 1-4 NB =       306.6296  1-4 EEL =      2124.4473  VDWAALS    =      -640.8536
 EELEC  =     -5532.3623  EGB     =     -1330.1768  RESTRAINT  =        15.3871
 EAMBER (non-restraint)  =     -2862.9415
 ESURF=        40.4857
 ------------------------------------------------------------------------------

      A V E R A G E S   O V E R     500 S T E P S

 NSTEP =  2500000   TIME(PS) =    6500.000  TEMP(K) =   299.80  PRESS =     0.0
 Etot   =     -1825.0715  EKtot   =      1056.2957  EPtot      =     -2881.3672
 BOND   =       290.5325  ANGLE   =       730.7249  DIHED      =      1128.3134
 1-4 NB =       309.3066  1-4 EEL =      2111.5737  VDWAALS    =      -651.2459
 EELEC  =     -5526.1048  EGB     =     -1327.8103  RESTRAINT  =        15.1866
 EAMBER (non-restraint)  =     -2896.5538
 ESURF=        38.1560
 ------------------------------------------------------------------------------

      R M S  F L U C T U A T I O N S

 NSTEP =  2500000   TIME(PS) =    6500.000  TEMP(K) =     6.86  PRESS =     0.0
 Etot   =        36.7063  EKtot   =        24.1584  EPtot      =        27.8797
 BOND   =        14.9565  ANGLE   =        20.8624  DIHED      =        13.1348
 1-4 NB =         7.4029  1-4 EEL =        29.2595  VDWAALS    =        11.6623
 EELEC  =        57.1029  EGB     =        54.7416  RESTRAINT  =         2.2451
 EAMBER (non-restraint)  =        25.6346
 ESURF=         1.3677
 ------------------------------------------------------------------------------
