-------------------------------------------------------
          Amber 22 PMEMD                              2022
          -------------------------------------------------------

  [-O]verwriting output

File Assignments:

 Here is the input file:

&cntrl
   ntx = 5,

   ntwx = 5000, ntwe = 0, ntwr = 500,
   ntpr = 5000,

   ioutfm=0, ntxo=1,

   imin = 0, nstlim = 125000, dt = 0.002,

   ntt = 3, gamma_ln=1.0, temp0 = 300.0,
   nscm = 1000, ig = -1, irest = 1,

   ntc= 2, ntf = 2, cut = 1000,

   igb=8, gbsa=3, surften=0.007, ntb = 0,
   saltcon=0.,

   ntr=1, restraintmask="@CA,N,C,O",
   restraint_wt=1.0,
 /

Note: ig = -1. Setting random seed to   130205 based on wallclock time in
      microseconds.

--------------------------------------------------------------------------------
   1.  RESOURCE   USE:
--------------------------------------------------------------------------------

 NATOM  =    1672 NTYPES =      14 NBONH =     849 MBONA  =     839
 NTHETH =    1955 MTHETA =    1120 NPHIH =    3865 MPHIA  =    3460
 NHPARM =       0 NPARM  =       0 NNB   =    9276 NRES   =     104
 NBONA  =     839 NTHETA =    1120 NPHIA =    3460 NUMBND =      64
 NUMANG =     148 NPTRA  =     179 NATYP =      33 NPHB   =       0
 IFBOX  =       0 NMXRS  =      24 IFCAP =       0 NEXTRA =       0
 NCOPY  =       0

 Implicit solvent radii are ArgH and AspGluO modified Bondi2 radii (mbondi3)
 Replacing prmtop screening parameters with GBn2 (igb=8) values
--------------------------------------------------------------------------------
   2.  CONTROL  DATA  FOR  THE  RUN
--------------------------------------------------------------------------------

default_name

General flags:
     imin    =       0, nmropt  =       0

Nature and format of input:
     ntx     =       5, irest   =       1, ntrx    =       1

Nature and format of output:
     ntxo    =       1, ntpr    =    5000, ntrx    =       1, ntwr    =     500
     iwrap   =       0, ntwx    =    5000, ntwv    =       0, ntwe    =       0
     ioutfm  =       0, ntwprt  =       0, idecomp =       0, rbornstat=      0

Potential function:
     ntf     =       2, ntb     =       0, igb     =       8, nsnb    =      25
     ipol    =       0, gbsa    =       3, iesp    =       0
     dielc   =   1.00000, cut     =1000.00000, intdiel =   1.00000
     saltcon =   0.00000, offset  =   0.19514, surften =   0.00700
     rdt     =   0.00000, rgbmax  =  25.00000  extdiel =  78.50000
     alpb  =        0
     gbalphaH  =   0.78844, gbbetaH   =   0.79870,  gbgammaH  =    0.43733
     gbalphaC  =   0.73376, gbbetaC   =   0.50638,  gbgammaC  =    0.20584
     gbalphaN  =   0.50336, gbbetaN   =   0.31683,  gbgammaN  =    0.19292
     gbalphaOS =   0.86781, gbbetaOS  =   0.87664,  gbgammaOS =    0.38788
     gbalphaP  =   1.00000, gbbetaP   =   0.80000,  gbgammaP  =    4.85000
     gb_alpha_hnu  =   0.53705, gb_beta_hnu   =   0.36286,  gb_gamma_hnu  =    0.11670
     gb_alpha_cnu  =   0.33167, gb_beta_cnu   =   0.19684,  gb_gamma_cnu  =    0.09342
     gb_alpha_nnu  =   0.68631, gb_beta_nnu   =   0.46319,  gb_gamma_nnu  =    0.13872
     gb_alpha_onu  =   0.60634, gb_beta_onu   =   0.46301,  gb_gamma_onu  =    0.14226
     gb_alpha_pnu  =   0.41836, gb_beta_pnu   =   0.29005,  gb_gamma_pnu  =    0.10642

Frozen or restrained atoms:
     ibelly  =       0, ntr     =       1
     restraint_wt =   1.00000

Molecular dynamics:
     nstlim  =    125000, nscm    =         0, nrespa  =         1
     t       =   0.00000, dt      =   0.00200, vlimit  =  20.00000

Langevin dynamics temperature regulation:
     ig      =  130205
     temp0   = 300.00000, tempi   =   0.00000, gamma_ln=   1.00000

SHAKE:
     ntc     =       2, jfastw  =       0
     tol     =   0.00001

    LOADING THE CONSTRAINED ATOMS AS GROUPS

   5.  REFERENCE ATOM COORDINATES

  default_name
     Mask @CA,N,C,O; matches   416 atoms

--------------------------------------------------------------------------------
   3.  ATOMIC COORDINATES AND VELOCITIES
--------------------------------------------------------------------------------

default_name
 begin time read from input coords =  1000.000 ps

 Number of triangulated 3-point waters found:        0

--------------------------------------------------------------------------------
   4.  RESULTS
 NSTEP =     5000   TIME(PS) =    1010.000  TEMP(K) =   304.51  PRESS =     0.0
 Etot   =      -711.9216  EKtot   =      1260.7842  EPtot      =     -1972.7059
 BOND   =       328.6510  ANGLE   =       878.1914  DIHED      =      1309.2014
 1-4 NB =       359.1799  1-4 EEL =      5789.8154  VDWAALS    =      -802.1859
 EELEC  =     -7374.5005  EGB     =     -2550.5792  RESTRAINT  =        47.9096
 EAMBER (non-restraint)  =     -2020.6155
 ESURF=        41.6110
 ------------------------------------------------------------------------------

      A V E R A G E S   O V E R      25 S T E P S

 NSTEP =   125000   TIME(PS) =    1250.000  TEMP(K) =   300.61  PRESS =     0.0
 Etot   =      -793.9739  EKtot   =      1244.6261  EPtot      =     -2038.6001
 BOND   =       318.2621  ANGLE   =       858.8773  DIHED      =      1286.4878
 1-4 NB =       361.2522  1-4 EEL =      5782.1793  VDWAALS    =      -802.2520
 EELEC  =     -7477.9905  EGB     =     -2449.6006  RESTRAINT  =        44.8778
 EAMBER (non-restraint)  =     -2083.4778
 ESURF=        39.3066
 ------------------------------------------------------------------------------

      R M S  F L U C T U A T I O N S

 NSTEP =   125000   TIME(PS) =    1250.000  TEMP(K) =     5.23  PRESS =     0.0
 Etot   =        36.1697  EKtot   =        21.6631  EPtot      =        29.1806
 BOND   =        13.1065  ANGLE   =        18.0777  DIHED      =        16.3365
 1-4 NB =         8.6881  1-4 EEL =        22.9779  VDWAALS    =         8.9804
 EELEC  =        73.7407  EGB     =        60.9146  RESTRAINT  =         3.3612
 EAMBER (non-restraint)  =        25.8194
 ESURF=         1.0084
 ------------------------------------------------------------------------------
