-------------------------------------------------------
          Amber 22 PMEMD                              2022
          -------------------------------------------------------

  [-O]verwriting output

File Assignments:

 Here is the input file:

&cntrl
   ntx = 5,
   ntwx = 5000, ntwe = 0, ntwr = 500,
   ntpr = 5000,

   ioutfm=0, ntxo=1,

   imin = 0, nstlim = 125000, dt = 0.002,

   ntt = 3, gamma_ln=1., temp0 = 300.0,
   nscm = 1000, ig = -1, irest = 1,

   ntc= 2, ntf = 2, cut = 1000,

   igb=8, gbsa=3, surften=0.007, ntb = 0,
   saltcon=0.,

   ntr=1, restraintmask="@CA,N,C,O",
   restraint_wt=0.1,
 /

Note: ig = -1. Setting random seed to   166847 based on wallclock time in
      microseconds.

--------------------------------------------------------------------------------
   1.  RESOURCE   USE:
--------------------------------------------------------------------------------

 NATOM  =    1647 NTYPES =      13 NBONH =     830 MBONA  =     830
 NTHETH =    1884 MTHETA =    1120 NPHIH =    3789 MPHIA  =    3476
 NHPARM =       0 NPARM  =       0 NNB   =    9085 NRES   =      97
 NBONA  =     830 NTHETA =    1120 NPHIA =    3476 NUMBND =      55
 NUMANG =     130 NPTRA  =     151 NATYP =      27 NPHB   =       0
 IFBOX  =       0 NMXRS  =      24 IFCAP =       0 NEXTRA =       0
 NCOPY  =       0

 Implicit solvent radii are ArgH and AspGluO modified Bondi2 radii (mbondi3)
 Replacing prmtop screening parameters with GBn2 (igb=8) values
--------------------------------------------------------------------------------
   2.  CONTROL  DATA  FOR  THE  RUN
--------------------------------------------------------------------------------

default_name

General flags:
     imin    =       0, nmropt  =       0

Nature and format of input:
     ntx     =       5, irest   =       1, ntrx    =       1

Nature and format of output:
     ntxo    =       1, ntpr    =    5000, ntrx    =       1, ntwr    =     500
     iwrap   =       0, ntwx    =    5000, ntwv    =       0, ntwe    =       0
     ioutfm  =       0, ntwprt  =       0, idecomp =       0, rbornstat=      0

Potential function:
     ntf     =       2, ntb     =       0, igb     =       8, nsnb    =      25
     ipol    =       0, gbsa    =       3, iesp    =       0
     dielc   =   1.00000, cut     =1000.00000, intdiel =   1.00000
     saltcon =   0.00000, offset  =   0.19514, surften =   0.00700
     rdt     =   0.00000, rgbmax  =  25.00000  extdiel =  78.50000
     alpb  =        0
     gbalphaH  =   0.78844, gbbetaH   =   0.79870,  gbgammaH  =    0.43733
     gbalphaC  =   0.73376, gbbetaC   =   0.50638,  gbgammaC  =    0.20584
     gbalphaN  =   0.50336, gbbetaN   =   0.31683,  gbgammaN  =    0.19292
     gbalphaOS =   0.86781, gbbetaOS  =   0.87664,  gbgammaOS =    0.38788
     gbalphaP  =   1.00000, gbbetaP   =   0.80000,  gbgammaP  =    4.85000
     gb_alpha_hnu  =   0.53705, gb_beta_hnu   =   0.36286,  gb_gamma_hnu  =    0.11670
     gb_alpha_cnu  =   0.33167, gb_beta_cnu   =   0.19684,  gb_gamma_cnu  =    0.09342
     gb_alpha_nnu  =   0.68631, gb_beta_nnu   =   0.46319,  gb_gamma_nnu  =    0.13872
     gb_alpha_onu  =   0.60634, gb_beta_onu   =   0.46301,  gb_gamma_onu  =    0.14226
     gb_alpha_pnu  =   0.41836, gb_beta_pnu   =   0.29005,  gb_gamma_pnu  =    0.10642

Frozen or restrained atoms:
     ibelly  =       0, ntr     =       1
     restraint_wt =   0.10000

Molecular dynamics:
     nstlim  =    125000, nscm    =         0, nrespa  =         1
     t       =   0.00000, dt      =   0.00200, vlimit  =  20.00000

Langevin dynamics temperature regulation:
     ig      =  166847
     temp0   = 300.00000, tempi   =   0.00000, gamma_ln=   1.00000

SHAKE:
     ntc     =       2, jfastw  =       0
     tol     =   0.00001

    LOADING THE CONSTRAINED ATOMS AS GROUPS

   5.  REFERENCE ATOM COORDINATES

  default_name
     Mask @CA,N,C,O; matches   388 atoms

--------------------------------------------------------------------------------
   3.  ATOMIC COORDINATES AND VELOCITIES
--------------------------------------------------------------------------------

default_name
 begin time read from input coords =  1250.000 ps

 Number of triangulated 3-point waters found:        0

--------------------------------------------------------------------------------
   4.  RESULTS
 NSTEP =     5000   TIME(PS) =    1260.000  TEMP(K) =   301.08  PRESS =     0.0
 Etot   =     -2825.1355  EKtot   =      1229.8125  EPtot      =     -4054.9480
 BOND   =       359.9715  ANGLE   =       819.3434  DIHED      =      1281.0422
 1-4 NB =       341.9536  1-4 EEL =      1707.8343  VDWAALS    =      -759.9959
 EELEC  =     -6039.1307  EGB     =     -1826.9936  RESTRAINT  =        14.0752
 EAMBER (non-restraint)  =     -4069.0232
 ESURF=        46.9520
 ------------------------------------------------------------------------------

      A V E R A G E S   O V E R      25 S T E P S

 NSTEP =   125000   TIME(PS) =    1500.000  TEMP(K) =   300.24  PRESS =     0.0
 Etot   =     -2866.7297  EKtot   =      1226.3854  EPtot      =     -4093.1152
 BOND   =       332.3023  ANGLE   =       804.0094  DIHED      =      1266.0166
 1-4 NB =       353.4083  1-4 EEL =      1745.6806  VDWAALS    =      -740.2382
 EELEC  =     -6080.4400  EGB     =     -1835.6703  RESTRAINT  =        15.4556
 EAMBER (non-restraint)  =     -4108.5708
 ESURF=        46.3606
 ------------------------------------------------------------------------------

      R M S  F L U C T U A T I O N S

 NSTEP =   125000   TIME(PS) =    1500.000  TEMP(K) =     6.69  PRESS =     0.0
 Etot   =        47.1205  EKtot   =        27.3405  EPtot      =        35.2656
 BOND   =        13.8895  ANGLE   =        29.2729  DIHED      =        14.7368
 1-4 NB =         6.5200  1-4 EEL =        28.7446  VDWAALS    =        10.1322
 EELEC  =        64.6160  EGB     =        57.0066  RESTRAINT  =         2.4823
 EAMBER (non-restraint)  =        32.7833
 ESURF=         1.2591
 ------------------------------------------------------------------------------
