-------------------------------------------------------
          Amber 22 PMEMD                              2022
          -------------------------------------------------------

  [-O]verwriting output

File Assignments:

 Here is the input file:

&cntrl
   ntx = 5,

   ntwx = 5000, ntwe = 0, ntwr = 500,
   ntpr = 5000,

   ioutfm=0, ntxo=1,

   imin = 0, nstlim = 125000, dt = 0.002,

   ntt = 3, gamma_ln=1.0, temp0 = 300.0,
   nscm = 1000, ig = -1, irest = 1,

   ntc= 2, ntf = 2, cut = 1000,

   igb=8, gbsa=3, surften=0.007, ntb = 0,
   saltcon=0.,

   ntr=1, restraintmask="@CA,N,C,O",
   restraint_wt=1.0,
 /

Note: ig = -1. Setting random seed to    97035 based on wallclock time in
      microseconds.

--------------------------------------------------------------------------------
   1.  RESOURCE   USE:
--------------------------------------------------------------------------------

 NATOM  =    3167 NTYPES =      14 NBONH =    1593 MBONA  =    1600
 NTHETH =    3656 MTHETA =    2159 NPHIH =    7111 MPHIA  =    6877
 NHPARM =       0 NPARM  =       0 NNB   =   17512 NRES   =     209
 NBONA  =    1600 NTHETA =    2159 NPHIA =    6877 NUMBND =      63
 NUMANG =     149 NPTRA  =     178 NATYP =      31 NPHB   =       0
 IFBOX  =       0 NMXRS  =      24 IFCAP =       0 NEXTRA =       0
 NCOPY  =       0

 Implicit solvent radii are ArgH and AspGluO modified Bondi2 radii (mbondi3)
 Replacing prmtop screening parameters with GBn2 (igb=8) values
--------------------------------------------------------------------------------
   2.  CONTROL  DATA  FOR  THE  RUN
--------------------------------------------------------------------------------

default_name

General flags:
     imin    =       0, nmropt  =       0

Nature and format of input:
     ntx     =       5, irest   =       1, ntrx    =       1

Nature and format of output:
     ntxo    =       1, ntpr    =    5000, ntrx    =       1, ntwr    =     500
     iwrap   =       0, ntwx    =    5000, ntwv    =       0, ntwe    =       0
     ioutfm  =       0, ntwprt  =       0, idecomp =       0, rbornstat=      0

Potential function:
     ntf     =       2, ntb     =       0, igb     =       8, nsnb    =      25
     ipol    =       0, gbsa    =       3, iesp    =       0
     dielc   =   1.00000, cut     =1000.00000, intdiel =   1.00000
     saltcon =   0.00000, offset  =   0.19514, surften =   0.00700
     rdt     =   0.00000, rgbmax  =  25.00000  extdiel =  78.50000
     alpb  =        0
     gbalphaH  =   0.78844, gbbetaH   =   0.79870,  gbgammaH  =    0.43733
     gbalphaC  =   0.73376, gbbetaC   =   0.50638,  gbgammaC  =    0.20584
     gbalphaN  =   0.50336, gbbetaN   =   0.31683,  gbgammaN  =    0.19292
     gbalphaOS =   0.86781, gbbetaOS  =   0.87664,  gbgammaOS =    0.38788
     gbalphaP  =   1.00000, gbbetaP   =   0.80000,  gbgammaP  =    4.85000
     gb_alpha_hnu  =   0.53705, gb_beta_hnu   =   0.36286,  gb_gamma_hnu  =    0.11670
     gb_alpha_cnu  =   0.33167, gb_beta_cnu   =   0.19684,  gb_gamma_cnu  =    0.09342
     gb_alpha_nnu  =   0.68631, gb_beta_nnu   =   0.46319,  gb_gamma_nnu  =    0.13872
     gb_alpha_onu  =   0.60634, gb_beta_onu   =   0.46301,  gb_gamma_onu  =    0.14226
     gb_alpha_pnu  =   0.41836, gb_beta_pnu   =   0.29005,  gb_gamma_pnu  =    0.10642

Frozen or restrained atoms:
     ibelly  =       0, ntr     =       1
     restraint_wt =   1.00000

Molecular dynamics:
     nstlim  =    125000, nscm    =         0, nrespa  =         1
     t       =   0.00000, dt      =   0.00200, vlimit  =  20.00000

Langevin dynamics temperature regulation:
     ig      =   97035
     temp0   = 300.00000, tempi   =   0.00000, gamma_ln=   1.00000

SHAKE:
     ntc     =       2, jfastw  =       0
     tol     =   0.00001

    LOADING THE CONSTRAINED ATOMS AS GROUPS

   5.  REFERENCE ATOM COORDINATES

  default_name
     Mask @CA,N,C,O; matches   836 atoms

--------------------------------------------------------------------------------
   3.  ATOMIC COORDINATES AND VELOCITIES
--------------------------------------------------------------------------------

default_name
 begin time read from input coords =  1000.000 ps

 Number of triangulated 3-point waters found:        0

--------------------------------------------------------------------------------
   4.  RESULTS
 NSTEP =     5000   TIME(PS) =    1010.000  TEMP(K) =   297.39  PRESS =     0.0
 Etot   =     -1636.0807  EKtot   =      2336.6787  EPtot      =     -3972.7594
 BOND   =       610.5846  ANGLE   =      1599.9228  DIHED      =      2444.5352
 1-4 NB =       710.5455  1-4 EEL =     11129.2607  VDWAALS    =     -1567.7486
 EELEC  =    -15383.0503  EGB     =     -3672.6638  RESTRAINT  =        82.5135
 EAMBER (non-restraint)  =     -4055.2728
 ESURF=        73.3409
 ------------------------------------------------------------------------------

      A V E R A G E S   O V E R      25 S T E P S

 NSTEP =   125000   TIME(PS) =    1250.000  TEMP(K) =   298.64  PRESS =     0.0
 Etot   =     -1666.6380  EKtot   =      2346.5233  EPtot      =     -4013.1614
 BOND   =       606.0913  ANGLE   =      1566.1616  DIHED      =      2449.4418
 1-4 NB =       716.1706  1-4 EEL =     11136.0361  VDWAALS    =     -1587.2592
 EELEC  =    -15432.0059  EGB     =     -3620.1579  RESTRAINT  =        81.2442
 EAMBER (non-restraint)  =     -4094.4055
 ESURF=        71.1161
 ------------------------------------------------------------------------------

      R M S  F L U C T U A T I O N S

 NSTEP =   125000   TIME(PS) =    1250.000  TEMP(K) =     4.30  PRESS =     0.0
 Etot   =        59.9977  EKtot   =        33.7778  EPtot      =        45.2415
 BOND   =        14.4727  ANGLE   =        38.2061  DIHED      =        17.5782
 1-4 NB =        11.5305  1-4 EEL =        25.6655  VDWAALS    =        12.6236
 EELEC  =        64.0030  EGB     =        59.4524  RESTRAINT  =         5.2806
 EAMBER (non-restraint)  =        39.9610
 ESURF=         1.3254
 ------------------------------------------------------------------------------
