-------------------------------------------------------
          Amber 22 PMEMD                              2022
          -------------------------------------------------------

  [-O]verwriting output

File Assignments:

 Here is the input file:

&cntrl
   ntx = 5,
   ntwx = 5000, ntwe = 0, ntwr = 500,
   ntpr = 5000,

   ioutfm=0, ntxo=1,

   imin = 0, nstlim = 2500000, dt = 0.002,

   ntt = 3, gamma_ln=1., temp0 = 300.0,
   nscm = 1000, ig = -1, irest = 1,

   ntc= 2, ntf = 2, cut = 1000,

   igb=8, gbsa=3, surften=0.007, ntb = 0,
   saltcon=0.,

   ntr=1, restraintmask="@CA,N,C,O",
   restraint_wt=0.1,
 /

Note: ig = -1. Setting random seed to   331070 based on wallclock time in
      microseconds.

--------------------------------------------------------------------------------
   1.  RESOURCE   USE:
--------------------------------------------------------------------------------

 NATOM  =    1158 NTYPES =      13 NBONH =     588 MBONA  =     581
 NTHETH =    1350 MTHETA =     778 NPHIH =    2660 MPHIA  =    2387
 NHPARM =       0 NPARM  =       0 NNB   =    6427 NRES   =      69
 NBONA  =     581 NTHETA =     778 NPHIA =    2387 NUMBND =      57
 NUMANG =     135 NPTRA  =     165 NATYP =      27 NPHB   =       0
 IFBOX  =       0 NMXRS  =      24 IFCAP =       0 NEXTRA =       0
 NCOPY  =       0

 Implicit solvent radii are ArgH and AspGluO modified Bondi2 radii (mbondi3)
 Replacing prmtop screening parameters with GBn2 (igb=8) values
--------------------------------------------------------------------------------
   2.  CONTROL  DATA  FOR  THE  RUN
--------------------------------------------------------------------------------

default_name

General flags:
     imin    =       0, nmropt  =       0

Nature and format of input:
     ntx     =       5, irest   =       1, ntrx    =       1

Nature and format of output:
     ntxo    =       1, ntpr    =    5000, ntrx    =       1, ntwr    =     500
     iwrap   =       0, ntwx    =    5000, ntwv    =       0, ntwe    =       0
     ioutfm  =       0, ntwprt  =       0, idecomp =       0, rbornstat=      0

Potential function:
     ntf     =       2, ntb     =       0, igb     =       8, nsnb    =      25
     ipol    =       0, gbsa    =       3, iesp    =       0
     dielc   =   1.00000, cut     =1000.00000, intdiel =   1.00000
     saltcon =   0.00000, offset  =   0.19514, surften =   0.00700
     rdt     =   0.00000, rgbmax  =  25.00000  extdiel =  78.50000
     alpb  =        0
     gbalphaH  =   0.78844, gbbetaH   =   0.79870,  gbgammaH  =    0.43733
     gbalphaC  =   0.73376, gbbetaC   =   0.50638,  gbgammaC  =    0.20584
     gbalphaN  =   0.50336, gbbetaN   =   0.31683,  gbgammaN  =    0.19292
     gbalphaOS =   0.86781, gbbetaOS  =   0.87664,  gbgammaOS =    0.38788
     gbalphaP  =   1.00000, gbbetaP   =   0.80000,  gbgammaP  =    4.85000
     gb_alpha_hnu  =   0.53705, gb_beta_hnu   =   0.36286,  gb_gamma_hnu  =    0.11670
     gb_alpha_cnu  =   0.33167, gb_beta_cnu   =   0.19684,  gb_gamma_cnu  =    0.09342
     gb_alpha_nnu  =   0.68631, gb_beta_nnu   =   0.46319,  gb_gamma_nnu  =    0.13872
     gb_alpha_onu  =   0.60634, gb_beta_onu   =   0.46301,  gb_gamma_onu  =    0.14226
     gb_alpha_pnu  =   0.41836, gb_beta_pnu   =   0.29005,  gb_gamma_pnu  =    0.10642

Frozen or restrained atoms:
     ibelly  =       0, ntr     =       1
     restraint_wt =   0.10000

Molecular dynamics:
     nstlim  =   2500000, nscm    =         0, nrespa  =         1
     t       =   0.00000, dt      =   0.00200, vlimit  =  20.00000

Langevin dynamics temperature regulation:
     ig      =  331070
     temp0   = 300.00000, tempi   =   0.00000, gamma_ln=   1.00000

SHAKE:
     ntc     =       2, jfastw  =       0
     tol     =   0.00001

    LOADING THE CONSTRAINED ATOMS AS GROUPS

   5.  REFERENCE ATOM COORDINATES

  default_name
     Mask @CA,N,C,O; matches   276 atoms

--------------------------------------------------------------------------------
   3.  ATOMIC COORDINATES AND VELOCITIES
--------------------------------------------------------------------------------

default_name
 begin time read from input coords =  1500.000 ps

 Number of triangulated 3-point waters found:        0

--------------------------------------------------------------------------------
   4.  RESULTS
 NSTEP =     5000   TIME(PS) =    1510.000  TEMP(K) =   275.87  PRESS =     0.0
 Etot   =      -878.9923  EKtot   =       791.0738  EPtot      =     -1670.0662
 BOND   =       208.5405  ANGLE   =       548.0160  DIHED      =       905.4897
 1-4 NB =       260.2529  1-4 EEL =      3547.3913  VDWAALS    =      -482.8754
 EELEC  =     -4856.4482  EGB     =     -1851.4075  RESTRAINT  =        13.5812
 EAMBER (non-restraint)  =     -1683.6474
 ESURF=        37.3933
 ------------------------------------------------------------------------------

      A V E R A G E S   O V E R     500 S T E P S

 NSTEP =  2500000   TIME(PS) =    6500.000  TEMP(K) =   299.98  PRESS =     0.0
 Etot   =      -804.2883  EKtot   =       860.2062  EPtot      =     -1664.4945
 BOND   =       224.6386  ANGLE   =       565.4358  DIHED      =       903.1322
 1-4 NB =       248.6569  1-4 EEL =      3514.8403  VDWAALS    =      -496.2577
 EELEC  =     -4844.3881  EGB     =     -1830.7450  RESTRAINT  =        13.8095
 EAMBER (non-restraint)  =     -1678.3040
 ESURF=        36.3830
 ------------------------------------------------------------------------------

      R M S  F L U C T U A T I O N S

 NSTEP =  2500000   TIME(PS) =    6500.000  TEMP(K) =     8.28  PRESS =     0.0
 Etot   =        33.3469  EKtot   =        23.7345  EPtot      =        24.8089
 BOND   =        12.2859  ANGLE   =        17.7621  DIHED      =        11.1311
 1-4 NB =         6.2779  1-4 EEL =        21.1356  VDWAALS    =         9.3481
 EELEC  =        54.2797  EGB     =        46.0409  RESTRAINT  =         2.3152
 EAMBER (non-restraint)  =        22.4937
 ESURF=         1.1800
 ------------------------------------------------------------------------------
