-------------------------------------------------------
          Amber 22 PMEMD                              2022
          -------------------------------------------------------

  [-O]verwriting output

File Assignments:

 Here is the input file:

&cntrl
   ntx = 5,
   ntwx = 5000, ntwe = 0, ntwr = 500,
   ntpr = 5000,

   ioutfm=0, ntxo=1,

   imin = 0, nstlim = 2500000, dt = 0.002,

   ntt = 3, gamma_ln=1., temp0 = 300.0,
   nscm = 1000, ig = -1, irest = 1,

   ntc= 2, ntf = 2, cut = 1000,

   igb=8, gbsa=3, surften=0.007, ntb = 0,
   saltcon=0.,

   ntr=1, restraintmask="@CA,N,C,O",
   restraint_wt=0.1,
 /

Note: ig = -1. Setting random seed to   463782 based on wallclock time in
      microseconds.

--------------------------------------------------------------------------------
   1.  RESOURCE   USE:
--------------------------------------------------------------------------------

 NATOM  =    1834 NTYPES =      13 NBONH =     878 MBONA  =     982
 NTHETH =    1990 MTHETA =    1340 NPHIH =    4172 MPHIA  =    4182
 NHPARM =       0 NPARM  =       0 NNB   =   10100 NRES   =     118
 NBONA  =     982 NTHETA =    1340 NPHIA =    4182 NUMBND =      61
 NUMANG =     144 NPTRA  =     169 NATYP =      30 NPHB   =       0
 IFBOX  =       0 NMXRS  =      24 IFCAP =       0 NEXTRA =       0
 NCOPY  =       0

 Implicit solvent radii are ArgH and AspGluO modified Bondi2 radii (mbondi3)
 Replacing prmtop screening parameters with GBn2 (igb=8) values
--------------------------------------------------------------------------------
   2.  CONTROL  DATA  FOR  THE  RUN
--------------------------------------------------------------------------------

default_name

General flags:
     imin    =       0, nmropt  =       0

Nature and format of input:
     ntx     =       5, irest   =       1, ntrx    =       1

Nature and format of output:
     ntxo    =       1, ntpr    =    5000, ntrx    =       1, ntwr    =     500
     iwrap   =       0, ntwx    =    5000, ntwv    =       0, ntwe    =       0
     ioutfm  =       0, ntwprt  =       0, idecomp =       0, rbornstat=      0

Potential function:
     ntf     =       2, ntb     =       0, igb     =       8, nsnb    =      25
     ipol    =       0, gbsa    =       3, iesp    =       0
     dielc   =   1.00000, cut     =1000.00000, intdiel =   1.00000
     saltcon =   0.00000, offset  =   0.19514, surften =   0.00700
     rdt     =   0.00000, rgbmax  =  25.00000  extdiel =  78.50000
     alpb  =        0
     gbalphaH  =   0.78844, gbbetaH   =   0.79870,  gbgammaH  =    0.43733
     gbalphaC  =   0.73376, gbbetaC   =   0.50638,  gbgammaC  =    0.20584
     gbalphaN  =   0.50336, gbbetaN   =   0.31683,  gbgammaN  =    0.19292
     gbalphaOS =   0.86781, gbbetaOS  =   0.87664,  gbgammaOS =    0.38788
     gbalphaP  =   1.00000, gbbetaP   =   0.80000,  gbgammaP  =    4.85000
     gb_alpha_hnu  =   0.53705, gb_beta_hnu   =   0.36286,  gb_gamma_hnu  =    0.11670
     gb_alpha_cnu  =   0.33167, gb_beta_cnu   =   0.19684,  gb_gamma_cnu  =    0.09342
     gb_alpha_nnu  =   0.68631, gb_beta_nnu   =   0.46319,  gb_gamma_nnu  =    0.13872
     gb_alpha_onu  =   0.60634, gb_beta_onu   =   0.46301,  gb_gamma_onu  =    0.14226
     gb_alpha_pnu  =   0.41836, gb_beta_pnu   =   0.29005,  gb_gamma_pnu  =    0.10642

Frozen or restrained atoms:
     ibelly  =       0, ntr     =       1
     restraint_wt =   0.10000

Molecular dynamics:
     nstlim  =   2500000, nscm    =         0, nrespa  =         1
     t       =   0.00000, dt      =   0.00200, vlimit  =  20.00000

Langevin dynamics temperature regulation:
     ig      =  463782
     temp0   = 300.00000, tempi   =   0.00000, gamma_ln=   1.00000

SHAKE:
     ntc     =       2, jfastw  =       0
     tol     =   0.00001

    LOADING THE CONSTRAINED ATOMS AS GROUPS

   5.  REFERENCE ATOM COORDINATES

  default_name
     Mask @CA,N,C,O; matches   472 atoms

--------------------------------------------------------------------------------
   3.  ATOMIC COORDINATES AND VELOCITIES
--------------------------------------------------------------------------------

default_name
 begin time read from input coords =  1500.000 ps

 Number of triangulated 3-point waters found:        0

--------------------------------------------------------------------------------
   4.  RESULTS
 NSTEP =     5000   TIME(PS) =    1510.000  TEMP(K) =   295.90  PRESS =     0.0
 Etot   =     -1549.3820  EKtot   =      1359.4923  EPtot      =     -2908.8742
 BOND   =       369.8321  ANGLE   =       922.5442  DIHED      =      1409.5680
 1-4 NB =       419.9008  1-4 EEL =      5366.4255  VDWAALS    =      -833.9868
 EELEC  =     -6625.0960  EGB     =     -4010.0157  RESTRAINT  =        18.6860
 EAMBER (non-restraint)  =     -2927.5602
 ESURF=        53.2677
 ------------------------------------------------------------------------------

      A V E R A G E S   O V E R     500 S T E P S

 NSTEP =  2500000   TIME(PS) =    6500.000  TEMP(K) =   299.77  PRESS =     0.0
 Etot   =     -1548.4503  EKtot   =      1377.2462  EPtot      =     -2925.6965
 BOND   =       373.3203  ANGLE   =       902.9042  DIHED      =      1408.0106
 1-4 NB =       415.9544  1-4 EEL =      5409.8223  VDWAALS    =      -852.6871
 EELEC  =     -6653.2840  EGB     =     -4003.8151  RESTRAINT  =        21.8567
 EAMBER (non-restraint)  =     -2947.5532
 ESURF=        52.2213
 ------------------------------------------------------------------------------

      R M S  F L U C T U A T I O N S

 NSTEP =  2500000   TIME(PS) =    6500.000  TEMP(K) =     6.43  PRESS =     0.0
 Etot   =        44.0892  EKtot   =        29.5492  EPtot      =        32.7762
 BOND   =        16.2825  ANGLE   =        23.5373  DIHED      =        15.0098
 1-4 NB =         8.0675  1-4 EEL =        30.7619  VDWAALS    =        13.0532
 EELEC  =        75.3129  EGB     =        58.4673  RESTRAINT  =         2.7504
 EAMBER (non-restraint)  =        30.0258
 ESURF=         1.3763
 ------------------------------------------------------------------------------
