-------------------------------------------------------
          Amber 22 PMEMD                              2022
          -------------------------------------------------------

  [-O]verwriting output

File Assignments:

 Here is the input file:

&cntrl
   ntx = 5,
   ntwx = 5000, ntwe = 0, ntwr = 500,
   ntpr = 5000,

   ioutfm=0, ntxo=1,

   imin = 0, nstlim = 2500000, dt = 0.002,

   ntt = 3, gamma_ln=1., temp0 = 300.0,
   nscm = 1000, ig = -1, irest = 1,

   ntc= 2, ntf = 2, cut = 1000,

   igb=8, gbsa=3, surften=0.007, ntb = 0,
   saltcon=0.,

   ntr=1, restraintmask="@CA,N,C,O",
   restraint_wt=0.1,
 /

Note: ig = -1. Setting random seed to   393136 based on wallclock time in
      microseconds.

--------------------------------------------------------------------------------
   1.  RESOURCE   USE:
--------------------------------------------------------------------------------

 NATOM  =    1402 NTYPES =      12 NBONH =     700 MBONA  =     718
 NTHETH =    1580 MTHETA =     987 NPHIH =    3287 MPHIA  =    3181
 NHPARM =       0 NPARM  =       0 NNB   =    7772 NRES   =      94
 NBONA  =     718 NTHETA =     987 NPHIA =    3181 NUMBND =      55
 NUMANG =     131 NPTRA  =     156 NATYP =      26 NPHB   =       0
 IFBOX  =       0 NMXRS  =      24 IFCAP =       0 NEXTRA =       0
 NCOPY  =       0

 Implicit solvent radii are ArgH and AspGluO modified Bondi2 radii (mbondi3)
 Replacing prmtop screening parameters with GBn2 (igb=8) values
--------------------------------------------------------------------------------
   2.  CONTROL  DATA  FOR  THE  RUN
--------------------------------------------------------------------------------

default_name

General flags:
     imin    =       0, nmropt  =       0

Nature and format of input:
     ntx     =       5, irest   =       1, ntrx    =       1

Nature and format of output:
     ntxo    =       1, ntpr    =    5000, ntrx    =       1, ntwr    =     500
     iwrap   =       0, ntwx    =    5000, ntwv    =       0, ntwe    =       0
     ioutfm  =       0, ntwprt  =       0, idecomp =       0, rbornstat=      0

Potential function:
     ntf     =       2, ntb     =       0, igb     =       8, nsnb    =      25
     ipol    =       0, gbsa    =       3, iesp    =       0
     dielc   =   1.00000, cut     =1000.00000, intdiel =   1.00000
     saltcon =   0.00000, offset  =   0.19514, surften =   0.00700
     rdt     =   0.00000, rgbmax  =  25.00000  extdiel =  78.50000
     alpb  =        0
     gbalphaH  =   0.78844, gbbetaH   =   0.79870,  gbgammaH  =    0.43733
     gbalphaC  =   0.73376, gbbetaC   =   0.50638,  gbgammaC  =    0.20584
     gbalphaN  =   0.50336, gbbetaN   =   0.31683,  gbgammaN  =    0.19292
     gbalphaOS =   0.86781, gbbetaOS  =   0.87664,  gbgammaOS =    0.38788
     gbalphaP  =   1.00000, gbbetaP   =   0.80000,  gbgammaP  =    4.85000
     gb_alpha_hnu  =   0.53705, gb_beta_hnu   =   0.36286,  gb_gamma_hnu  =    0.11670
     gb_alpha_cnu  =   0.33167, gb_beta_cnu   =   0.19684,  gb_gamma_cnu  =    0.09342
     gb_alpha_nnu  =   0.68631, gb_beta_nnu   =   0.46319,  gb_gamma_nnu  =    0.13872
     gb_alpha_onu  =   0.60634, gb_beta_onu   =   0.46301,  gb_gamma_onu  =    0.14226
     gb_alpha_pnu  =   0.41836, gb_beta_pnu   =   0.29005,  gb_gamma_pnu  =    0.10642

Frozen or restrained atoms:
     ibelly  =       0, ntr     =       1
     restraint_wt =   0.10000

Molecular dynamics:
     nstlim  =   2500000, nscm    =         0, nrespa  =         1
     t       =   0.00000, dt      =   0.00200, vlimit  =  20.00000

Langevin dynamics temperature regulation:
     ig      =  393136
     temp0   = 300.00000, tempi   =   0.00000, gamma_ln=   1.00000

SHAKE:
     ntc     =       2, jfastw  =       0
     tol     =   0.00001

    LOADING THE CONSTRAINED ATOMS AS GROUPS

   5.  REFERENCE ATOM COORDINATES

  default_name
     Mask @CA,N,C,O; matches   376 atoms

--------------------------------------------------------------------------------
   3.  ATOMIC COORDINATES AND VELOCITIES
--------------------------------------------------------------------------------

default_name
 begin time read from input coords =  1500.000 ps

 Number of triangulated 3-point waters found:        0

--------------------------------------------------------------------------------
   4.  RESULTS
 NSTEP =     5000   TIME(PS) =    1510.000  TEMP(K) =   304.16  PRESS =     0.0
 Etot   =      -795.5479  EKtot   =      1059.5581  EPtot      =     -1855.1060
 BOND   =       268.8280  ANGLE   =       672.7613  DIHED      =      1112.5716
 1-4 NB =       308.8906  1-4 EEL =      3435.4184  VDWAALS    =      -561.0781
 EELEC  =     -5882.3851  EGB     =     -1276.3545  RESTRAINT  =        20.7029
 EAMBER (non-restraint)  =     -1875.8090
 ESURF=        45.5388
 ------------------------------------------------------------------------------

      A V E R A G E S   O V E R     500 S T E P S

 NSTEP =  2500000   TIME(PS) =    6500.000  TEMP(K) =   299.95  PRESS =     0.0
 Etot   =      -819.3251  EKtot   =      1044.8760  EPtot      =     -1864.2011
 BOND   =       279.5705  ANGLE   =       683.5539  DIHED      =      1107.6248
 1-4 NB =       308.2028  1-4 EEL =      3401.8436  VDWAALS    =      -580.8032
 EELEC  =     -5839.3631  EGB     =     -1292.8783  RESTRAINT  =        23.4826
 EAMBER (non-restraint)  =     -1887.6837
 ESURF=        44.5653
 ------------------------------------------------------------------------------

      R M S  F L U C T U A T I O N S

 NSTEP =  2500000   TIME(PS) =    6500.000  TEMP(K) =     7.41  PRESS =     0.0
 Etot   =        35.7752  EKtot   =        25.7959  EPtot      =        26.4374
 BOND   =        14.2206  ANGLE   =        19.8525  DIHED      =        13.4941
 1-4 NB =         7.1907  1-4 EEL =        28.4731  VDWAALS    =        11.5042
 EELEC  =        46.8871  EGB     =        39.0307  RESTRAINT  =         3.0508
 EAMBER (non-restraint)  =        23.3866
 ESURF=         1.1971
 ------------------------------------------------------------------------------
