-------------------------------------------------------
          Amber 22 PMEMD                              2022
          -------------------------------------------------------

  [-O]verwriting output

File Assignments:

 Here is the input file:

&cntrl
   ntx = 5,
   ntwx = 5000, ntwe = 0, ntwr = 500,
   ntpr = 5000,

   ioutfm=0, ntxo=1,

   imin = 0, nstlim = 125000, dt = 0.002,

   ntt = 3, gamma_ln=1., temp0 = 300.0,
   nscm = 1000, ig = -1, irest = 1,

   ntc= 2, ntf = 2, cut = 1000,

   igb=8, gbsa=3, surften=0.007, ntb = 0,
   saltcon=0.,

   ntr=1, restraintmask="@CA,N,C,O",
   restraint_wt=0.1,
 /

Note: ig = -1. Setting random seed to   921023 based on wallclock time in
      microseconds.

--------------------------------------------------------------------------------
   1.  RESOURCE   USE:
--------------------------------------------------------------------------------

 NATOM  =    4380 NTYPES =      13 NBONH =    2205 MBONA  =    2206
 NTHETH =    5031 MTHETA =    2975 NPHIH =   10101 MPHIA  =    9496
 NHPARM =       0 NPARM  =       0 NNB   =   24234 NRES   =     273
 NBONA  =    2206 NTHETA =    2975 NPHIA =    9496 NUMBND =      61
 NUMANG =     147 NPTRA  =     177 NATYP =      29 NPHB   =       0
 IFBOX  =       0 NMXRS  =      24 IFCAP =       0 NEXTRA =       0
 NCOPY  =       0

 Implicit solvent radii are ArgH and AspGluO modified Bondi2 radii (mbondi3)
 Replacing prmtop screening parameters with GBn2 (igb=8) values
--------------------------------------------------------------------------------
   2.  CONTROL  DATA  FOR  THE  RUN
--------------------------------------------------------------------------------

default_name

General flags:
     imin    =       0, nmropt  =       0

Nature and format of input:
     ntx     =       5, irest   =       1, ntrx    =       1

Nature and format of output:
     ntxo    =       1, ntpr    =    5000, ntrx    =       1, ntwr    =     500
     iwrap   =       0, ntwx    =    5000, ntwv    =       0, ntwe    =       0
     ioutfm  =       0, ntwprt  =       0, idecomp =       0, rbornstat=      0

Potential function:
     ntf     =       2, ntb     =       0, igb     =       8, nsnb    =      25
     ipol    =       0, gbsa    =       3, iesp    =       0
     dielc   =   1.00000, cut     =1000.00000, intdiel =   1.00000
     saltcon =   0.00000, offset  =   0.19514, surften =   0.00700
     rdt     =   0.00000, rgbmax  =  25.00000  extdiel =  78.50000
     alpb  =        0
     gbalphaH  =   0.78844, gbbetaH   =   0.79870,  gbgammaH  =    0.43733
     gbalphaC  =   0.73376, gbbetaC   =   0.50638,  gbgammaC  =    0.20584
     gbalphaN  =   0.50336, gbbetaN   =   0.31683,  gbgammaN  =    0.19292
     gbalphaOS =   0.86781, gbbetaOS  =   0.87664,  gbgammaOS =    0.38788
     gbalphaP  =   1.00000, gbbetaP   =   0.80000,  gbgammaP  =    4.85000
     gb_alpha_hnu  =   0.53705, gb_beta_hnu   =   0.36286,  gb_gamma_hnu  =    0.11670
     gb_alpha_cnu  =   0.33167, gb_beta_cnu   =   0.19684,  gb_gamma_cnu  =    0.09342
     gb_alpha_nnu  =   0.68631, gb_beta_nnu   =   0.46319,  gb_gamma_nnu  =    0.13872
     gb_alpha_onu  =   0.60634, gb_beta_onu   =   0.46301,  gb_gamma_onu  =    0.14226
     gb_alpha_pnu  =   0.41836, gb_beta_pnu   =   0.29005,  gb_gamma_pnu  =    0.10642

Frozen or restrained atoms:
     ibelly  =       0, ntr     =       1
     restraint_wt =   0.10000

Molecular dynamics:
     nstlim  =    125000, nscm    =         0, nrespa  =         1
     t       =   0.00000, dt      =   0.00200, vlimit  =  20.00000

Langevin dynamics temperature regulation:
     ig      =  921023
     temp0   = 300.00000, tempi   =   0.00000, gamma_ln=   1.00000

SHAKE:
     ntc     =       2, jfastw  =       0
     tol     =   0.00001

    LOADING THE CONSTRAINED ATOMS AS GROUPS

   5.  REFERENCE ATOM COORDINATES

  default_name
     Mask @CA,N,C,O; matches  1092 atoms

--------------------------------------------------------------------------------
   3.  ATOMIC COORDINATES AND VELOCITIES
--------------------------------------------------------------------------------

default_name
 begin time read from input coords =  1249.000 ps

 Number of triangulated 3-point waters found:        0

--------------------------------------------------------------------------------
   4.  RESULTS
 NSTEP =     5000   TIME(PS) =    1259.000  TEMP(K) =   303.66  PRESS =     0.0
 Etot   =     -4203.6676  EKtot   =      3299.3093  EPtot      =     -7502.9769
 BOND   =       788.5816  ANGLE   =      2127.7787  DIHED      =      3394.3550
 1-4 NB =       953.0726  1-4 EEL =     11413.9270  VDWAALS    =     -1988.6754
 EELEC  =    -19374.0442  EGB     =     -4963.6950  RESTRAINT  =        39.6760
 EAMBER (non-restraint)  =     -7542.6529
 ESURF=       106.0466
 ------------------------------------------------------------------------------

      A V E R A G E S   O V E R      25 S T E P S

 NSTEP =   125000   TIME(PS) =    1499.000  TEMP(K) =   300.07  PRESS =     0.0
 Etot   =     -4227.0562  EKtot   =      3260.2622  EPtot      =     -7487.3184
 BOND   =       848.6571  ANGLE   =      2112.5685  DIHED      =      3386.7742
 1-4 NB =       938.4791  1-4 EEL =     11420.1608  VDWAALS    =     -2003.3907
 EELEC  =    -19404.1092  EGB     =     -4934.6506  RESTRAINT  =        42.8691
 EAMBER (non-restraint)  =     -7530.1875
 ESURF=       105.3232
 ------------------------------------------------------------------------------

      R M S  F L U C T U A T I O N S

 NSTEP =   125000   TIME(PS) =    1499.000  TEMP(K) =     4.72  PRESS =     0.0
 Etot   =        59.0402  EKtot   =        51.2621  EPtot      =        30.4590
 BOND   =        25.5232  ANGLE   =        27.6377  DIHED      =        18.9381
 1-4 NB =        11.7798  1-4 EEL =        34.1602  VDWAALS    =        14.8393
 EELEC  =        58.5350  EGB     =        63.8548  RESTRAINT  =         4.5539
 EAMBER (non-restraint)  =        25.9050
 ESURF=         1.3373
 ------------------------------------------------------------------------------
