-------------------------------------------------------
          Amber 22 PMEMD                              2022
          -------------------------------------------------------

  [-O]verwriting output

File Assignments:

 Here is the input file:

&cntrl
   ntx = 5,
   ntwx = 5000, ntwe = 0, ntwr = 500,
   ntpr = 5000,

   ioutfm=0, ntxo=1,

   imin = 0, nstlim = 2500000, dt = 0.002,

   ntt = 3, gamma_ln=1., temp0 = 300.0,
   nscm = 1000, ig = -1, irest = 1,

   ntc= 2, ntf = 2, cut = 1000,

   igb=8, gbsa=3, surften=0.007, ntb = 0,
   saltcon=0.,

   ntr=1, restraintmask="@CA,N,C,O",
   restraint_wt=0.1,
 /

Note: ig = -1. Setting random seed to   266815 based on wallclock time in
      microseconds.

--------------------------------------------------------------------------------
   1.  RESOURCE   USE:
--------------------------------------------------------------------------------

 NATOM  =    2382 NTYPES =      14 NBONH =    1233 MBONA  =    1161
 NTHETH =    2831 MTHETA =    1554 NPHIH =    5497 MPHIA  =    4882
 NHPARM =       0 NPARM  =       0 NNB   =   13223 NRES   =     149
 NBONA  =    1161 NTHETA =    1554 NPHIA =    4882 NUMBND =      55
 NUMANG =     130 NPTRA  =     161 NATYP =      27 NPHB   =       0
 IFBOX  =       0 NMXRS  =      24 IFCAP =       0 NEXTRA =       0
 NCOPY  =       0

 Implicit solvent radii are ArgH and AspGluO modified Bondi2 radii (mbondi3)
 Replacing prmtop screening parameters with GBn2 (igb=8) values
--------------------------------------------------------------------------------
   2.  CONTROL  DATA  FOR  THE  RUN
--------------------------------------------------------------------------------

default_name

General flags:
     imin    =       0, nmropt  =       0

Nature and format of input:
     ntx     =       5, irest   =       1, ntrx    =       1

Nature and format of output:
     ntxo    =       1, ntpr    =    5000, ntrx    =       1, ntwr    =     500
     iwrap   =       0, ntwx    =    5000, ntwv    =       0, ntwe    =       0
     ioutfm  =       0, ntwprt  =       0, idecomp =       0, rbornstat=      0

Potential function:
     ntf     =       2, ntb     =       0, igb     =       8, nsnb    =      25
     ipol    =       0, gbsa    =       3, iesp    =       0
     dielc   =   1.00000, cut     =1000.00000, intdiel =   1.00000
     saltcon =   0.00000, offset  =   0.19514, surften =   0.00700
     rdt     =   0.00000, rgbmax  =  25.00000  extdiel =  78.50000
     alpb  =        0
     gbalphaH  =   0.78844, gbbetaH   =   0.79870,  gbgammaH  =    0.43733
     gbalphaC  =   0.73376, gbbetaC   =   0.50638,  gbgammaC  =    0.20584
     gbalphaN  =   0.50336, gbbetaN   =   0.31683,  gbgammaN  =    0.19292
     gbalphaOS =   0.86781, gbbetaOS  =   0.87664,  gbgammaOS =    0.38788
     gbalphaP  =   1.00000, gbbetaP   =   0.80000,  gbgammaP  =    4.85000
     gb_alpha_hnu  =   0.53705, gb_beta_hnu   =   0.36286,  gb_gamma_hnu  =    0.11670
     gb_alpha_cnu  =   0.33167, gb_beta_cnu   =   0.19684,  gb_gamma_cnu  =    0.09342
     gb_alpha_nnu  =   0.68631, gb_beta_nnu   =   0.46319,  gb_gamma_nnu  =    0.13872
     gb_alpha_onu  =   0.60634, gb_beta_onu   =   0.46301,  gb_gamma_onu  =    0.14226
     gb_alpha_pnu  =   0.41836, gb_beta_pnu   =   0.29005,  gb_gamma_pnu  =    0.10642

Frozen or restrained atoms:
     ibelly  =       0, ntr     =       1
     restraint_wt =   0.10000

Molecular dynamics:
     nstlim  =   2500000, nscm    =         0, nrespa  =         1
     t       =   0.00000, dt      =   0.00200, vlimit  =  20.00000

Langevin dynamics temperature regulation:
     ig      =  266815
     temp0   = 300.00000, tempi   =   0.00000, gamma_ln=   1.00000

SHAKE:
     ntc     =       2, jfastw  =       0
     tol     =   0.00001

    LOADING THE CONSTRAINED ATOMS AS GROUPS

   5.  REFERENCE ATOM COORDINATES

  default_name
     Mask @CA,N,C,O; matches   596 atoms

--------------------------------------------------------------------------------
   3.  ATOMIC COORDINATES AND VELOCITIES
--------------------------------------------------------------------------------

default_name
 begin time read from input coords =  1461.000 ps

 Number of triangulated 3-point waters found:        0

--------------------------------------------------------------------------------
   4.  RESULTS
 NSTEP =     5000   TIME(PS) =    1471.000  TEMP(K) =   302.17  PRESS =     0.0
 Etot   =     -1412.1957  EKtot   =      1775.2657  EPtot      =     -3187.4614
 BOND   =       446.9383  ANGLE   =      1207.7845  DIHED      =      1871.9495
 1-4 NB =       498.2456  1-4 EEL =      7625.6542  VDWAALS    =     -1018.0759
 EELEC  =    -10222.8373  EGB     =     -3697.6626  RESTRAINT  =        27.7494
 EAMBER (non-restraint)  =     -3215.2108
 ESURF=        72.7929
 ------------------------------------------------------------------------------

      A V E R A G E S   O V E R     500 S T E P S

 NSTEP =  2500000   TIME(PS) =    6461.000  TEMP(K) =   300.16  PRESS =     0.0
 Etot   =     -1439.1919  EKtot   =      1763.4840  EPtot      =     -3202.6759
 BOND   =       450.1741  ANGLE   =      1224.0584  DIHED      =      1837.5159
 1-4 NB =       502.4070  1-4 EEL =      7583.1023  VDWAALS    =     -1000.6869
 EELEC  =    -10232.4465  EGB     =     -3666.6643  RESTRAINT  =        26.8041
 EAMBER (non-restraint)  =     -3229.4801
 ESURF=        73.0598
 ------------------------------------------------------------------------------

      R M S  F L U C T U A T I O N S

 NSTEP =  2500000   TIME(PS) =    6461.000  TEMP(K) =     5.65  PRESS =     0.0
 Etot   =        50.1234  EKtot   =        33.2030  EPtot      =        35.3069
 BOND   =        18.7293  ANGLE   =        27.5670  DIHED      =        15.8351
 1-4 NB =         9.4038  1-4 EEL =        28.7794  VDWAALS    =        12.9926
 EELEC  =        81.2133  EGB     =        70.7191  RESTRAINT  =         2.9134
 EAMBER (non-restraint)  =        32.3935
 ESURF=         1.5280
 ------------------------------------------------------------------------------
