-------------------------------------------------------
          Amber 22 PMEMD                              2022
          -------------------------------------------------------

  [-O]verwriting output

File Assignments:

 Here is the input file:

&cntrl
   ntx = 5,

   ntwx = 5000, ntwe = 0, ntwr = 500,
   ntpr = 5000,

   ioutfm=0, ntxo=1,

   imin = 0, nstlim = 125000, dt = 0.002,

   ntt = 3, gamma_ln=1.0, temp0 = 300.0,
   nscm = 1000, ig = -1, irest = 1,

   ntc= 2, ntf = 2, cut = 1000,

   igb=8, gbsa=3, surften=0.007, ntb = 0,
   saltcon=0.,

   ntr=1, restraintmask="@CA,N,C,O",
   restraint_wt=1.0,
 /

Note: ig = -1. Setting random seed to   685252 based on wallclock time in
      microseconds.

--------------------------------------------------------------------------------
   1.  RESOURCE   USE:
--------------------------------------------------------------------------------

 NATOM  =    2446 NTYPES =      14 NBONH =    1207 MBONA  =    1281
 NTHETH =    2771 MTHETA =    1735 NPHIH =    5520 MPHIA  =    5352
 NHPARM =       0 NPARM  =       0 NNB   =   13596 NRES   =     143
 NBONA  =    1281 NTHETA =    1735 NPHIA =    5352 NUMBND =      63
 NUMANG =     149 NPTRA  =     178 NATYP =      31 NPHB   =       0
 IFBOX  =       0 NMXRS  =      24 IFCAP =       0 NEXTRA =       0
 NCOPY  =       0

 Implicit solvent radii are ArgH and AspGluO modified Bondi2 radii (mbondi3)
 Replacing prmtop screening parameters with GBn2 (igb=8) values
--------------------------------------------------------------------------------
   2.  CONTROL  DATA  FOR  THE  RUN
--------------------------------------------------------------------------------

default_name

General flags:
     imin    =       0, nmropt  =       0

Nature and format of input:
     ntx     =       5, irest   =       1, ntrx    =       1

Nature and format of output:
     ntxo    =       1, ntpr    =    5000, ntrx    =       1, ntwr    =     500
     iwrap   =       0, ntwx    =    5000, ntwv    =       0, ntwe    =       0
     ioutfm  =       0, ntwprt  =       0, idecomp =       0, rbornstat=      0

Potential function:
     ntf     =       2, ntb     =       0, igb     =       8, nsnb    =      25
     ipol    =       0, gbsa    =       3, iesp    =       0
     dielc   =   1.00000, cut     =1000.00000, intdiel =   1.00000
     saltcon =   0.00000, offset  =   0.19514, surften =   0.00700
     rdt     =   0.00000, rgbmax  =  25.00000  extdiel =  78.50000
     alpb  =        0
     gbalphaH  =   0.78844, gbbetaH   =   0.79870,  gbgammaH  =    0.43733
     gbalphaC  =   0.73376, gbbetaC   =   0.50638,  gbgammaC  =    0.20584
     gbalphaN  =   0.50336, gbbetaN   =   0.31683,  gbgammaN  =    0.19292
     gbalphaOS =   0.86781, gbbetaOS  =   0.87664,  gbgammaOS =    0.38788
     gbalphaP  =   1.00000, gbbetaP   =   0.80000,  gbgammaP  =    4.85000
     gb_alpha_hnu  =   0.53705, gb_beta_hnu   =   0.36286,  gb_gamma_hnu  =    0.11670
     gb_alpha_cnu  =   0.33167, gb_beta_cnu   =   0.19684,  gb_gamma_cnu  =    0.09342
     gb_alpha_nnu  =   0.68631, gb_beta_nnu   =   0.46319,  gb_gamma_nnu  =    0.13872
     gb_alpha_onu  =   0.60634, gb_beta_onu   =   0.46301,  gb_gamma_onu  =    0.14226
     gb_alpha_pnu  =   0.41836, gb_beta_pnu   =   0.29005,  gb_gamma_pnu  =    0.10642

Frozen or restrained atoms:
     ibelly  =       0, ntr     =       1
     restraint_wt =   1.00000

Molecular dynamics:
     nstlim  =    125000, nscm    =         0, nrespa  =         1
     t       =   0.00000, dt      =   0.00200, vlimit  =  20.00000

Langevin dynamics temperature regulation:
     ig      =  685252
     temp0   = 300.00000, tempi   =   0.00000, gamma_ln=   1.00000

SHAKE:
     ntc     =       2, jfastw  =       0
     tol     =   0.00001

    LOADING THE CONSTRAINED ATOMS AS GROUPS

   5.  REFERENCE ATOM COORDINATES

  default_name
     Mask @CA,N,C,O; matches   572 atoms

--------------------------------------------------------------------------------
   3.  ATOMIC COORDINATES AND VELOCITIES
--------------------------------------------------------------------------------

default_name
 begin time read from input coords =  1000.000 ps

 Number of triangulated 3-point waters found:        0

--------------------------------------------------------------------------------
   4.  RESULTS
 NSTEP =     5000   TIME(PS) =    1010.000  TEMP(K) =   306.85  PRESS =     0.0
 Etot   =     -1625.4817  EKtot   =      1869.2693  EPtot      =     -3494.7510
 BOND   =       525.3223  ANGLE   =      1342.1874  DIHED      =      1852.1575
 1-4 NB =       533.0372  1-4 EEL =      6050.4671  VDWAALS    =     -1158.2101
 EELEC  =     -9941.9835  EGB     =     -2819.7166  RESTRAINT  =        66.3251
 EAMBER (non-restraint)  =     -3561.0761
 ESURF=        55.6626
 ------------------------------------------------------------------------------

      A V E R A G E S   O V E R      25 S T E P S

 NSTEP =   125000   TIME(PS) =    1250.000  TEMP(K) =   299.26  PRESS =     0.0
 Etot   =     -1675.4102  EKtot   =      1823.0108  EPtot      =     -3498.4210
 BOND   =       483.3542  ANGLE   =      1364.7518  DIHED      =      1855.7965
 1-4 NB =       525.1971  1-4 EEL =      6065.2846  VDWAALS    =     -1157.0464
 EELEC  =     -9856.2383  EGB     =     -2908.6396  RESTRAINT  =        72.8544
 EAMBER (non-restraint)  =     -3571.2754
 ESURF=        56.2647
 ------------------------------------------------------------------------------

      R M S  F L U C T U A T I O N S

 NSTEP =   125000   TIME(PS) =    1250.000  TEMP(K) =     5.74  PRESS =     0.0
 Etot   =        53.2396  EKtot   =        34.9437  EPtot      =        34.8513
 BOND   =        18.6938  ANGLE   =        22.2306  DIHED      =        16.8592
 1-4 NB =         8.2664  1-4 EEL =        21.3873  VDWAALS    =        14.5674
 EELEC  =        58.4558  EGB     =        53.7998  RESTRAINT  =         5.9039
 EAMBER (non-restraint)  =        28.9474
 ESURF=         1.8030
 ------------------------------------------------------------------------------
