-------------------------------------------------------
          Amber 22 PMEMD                              2022
          -------------------------------------------------------

  [-O]verwriting output

File Assignments:

 Here is the input file:

&cntrl
   ntx = 5,

   ntwx = 5000, ntwe = 0, ntwr = 500,
   ntpr = 5000,

   ioutfm=0, ntxo=1,

   imin = 0, nstlim = 125000, dt = 0.002,

   ntt = 3, gamma_ln=1.0, temp0 = 300.0,
   nscm = 1000, ig = -1, irest = 1,

   ntc= 2, ntf = 2, cut = 1000,

   igb=8, gbsa=3, surften=0.007, ntb = 0,
   saltcon=0.,

   ntr=1, restraintmask="@CA,N,C,O",
   restraint_wt=1.0,
 /

Note: ig = -1. Setting random seed to   260229 based on wallclock time in
      microseconds.

--------------------------------------------------------------------------------
   1.  RESOURCE   USE:
--------------------------------------------------------------------------------

 NATOM  =   14201 NTYPES =      14 NBONH =    7174 MBONA  =    7123
 NTHETH =   16367 MTHETA =    9643 NPHIH =   32415 MPHIA  =   31023
 NHPARM =       0 NPARM  =       0 NNB   =   78432 NRES   =     951
 NBONA  =    7123 NTHETA =    9643 NPHIA =   31023 NUMBND =      66
 NUMANG =     156 NPTRA  =     204 NATYP =      33 NPHB   =       0
 IFBOX  =       0 NMXRS  =      24 IFCAP =       0 NEXTRA =       0
 NCOPY  =       0

 Implicit solvent radii are ArgH and AspGluO modified Bondi2 radii (mbondi3)
 Replacing prmtop screening parameters with GBn2 (igb=8) values
--------------------------------------------------------------------------------
   2.  CONTROL  DATA  FOR  THE  RUN
--------------------------------------------------------------------------------

default_name

General flags:
     imin    =       0, nmropt  =       0

Nature and format of input:
     ntx     =       5, irest   =       1, ntrx    =       1

Nature and format of output:
     ntxo    =       1, ntpr    =    5000, ntrx    =       1, ntwr    =     500
     iwrap   =       0, ntwx    =    5000, ntwv    =       0, ntwe    =       0
     ioutfm  =       0, ntwprt  =       0, idecomp =       0, rbornstat=      0

Potential function:
     ntf     =       2, ntb     =       0, igb     =       8, nsnb    =      25
     ipol    =       0, gbsa    =       3, iesp    =       0
     dielc   =   1.00000, cut     =1000.00000, intdiel =   1.00000
     saltcon =   0.00000, offset  =   0.19514, surften =   0.00700
     rdt     =   0.00000, rgbmax  =  25.00000  extdiel =  78.50000
     alpb  =        0
     gbalphaH  =   0.78844, gbbetaH   =   0.79870,  gbgammaH  =    0.43733
     gbalphaC  =   0.73376, gbbetaC   =   0.50638,  gbgammaC  =    0.20584
     gbalphaN  =   0.50336, gbbetaN   =   0.31683,  gbgammaN  =    0.19292
     gbalphaOS =   0.86781, gbbetaOS  =   0.87664,  gbgammaOS =    0.38788
     gbalphaP  =   1.00000, gbbetaP   =   0.80000,  gbgammaP  =    4.85000
     gb_alpha_hnu  =   0.53705, gb_beta_hnu   =   0.36286,  gb_gamma_hnu  =    0.11670
     gb_alpha_cnu  =   0.33167, gb_beta_cnu   =   0.19684,  gb_gamma_cnu  =    0.09342
     gb_alpha_nnu  =   0.68631, gb_beta_nnu   =   0.46319,  gb_gamma_nnu  =    0.13872
     gb_alpha_onu  =   0.60634, gb_beta_onu   =   0.46301,  gb_gamma_onu  =    0.14226
     gb_alpha_pnu  =   0.41836, gb_beta_pnu   =   0.29005,  gb_gamma_pnu  =    0.10642

Frozen or restrained atoms:
     ibelly  =       0, ntr     =       1
     restraint_wt =   1.00000

Molecular dynamics:
     nstlim  =    125000, nscm    =         0, nrespa  =         1
     t       =   0.00000, dt      =   0.00200, vlimit  =  20.00000

Langevin dynamics temperature regulation:
     ig      =  260229
     temp0   = 300.00000, tempi   =   0.00000, gamma_ln=   1.00000

SHAKE:
     ntc     =       2, jfastw  =       0
     tol     =   0.00001

    LOADING THE CONSTRAINED ATOMS AS GROUPS

   5.  REFERENCE ATOM COORDINATES

  default_name
     Mask @CA,N,C,O; matches  3804 atoms

--------------------------------------------------------------------------------
   3.  ATOMIC COORDINATES AND VELOCITIES
--------------------------------------------------------------------------------

default_name
 begin time read from input coords =   155.000 ps

 Number of triangulated 3-point waters found:        0

--------------------------------------------------------------------------------
   4.  RESULTS
 NSTEP =     5000   TIME(PS) =     165.000  TEMP(K) =   298.92  PRESS =     0.0
 Etot   =     -7862.5035  EKtot   =     10522.7206  EPtot      =    -18385.2241
 BOND   =      2679.5247  ANGLE   =      7233.2478  DIHED      =     11445.7106
 1-4 NB =      3240.8408  1-4 EEL =     45009.4129  VDWAALS    =     -7522.1892
 EELEC  =    -66931.5337  EGB     =    -14197.9848  RESTRAINT  =       409.4290
 EAMBER (non-restraint)  =    -18794.6532
 ESURF=       248.3179
 ------------------------------------------------------------------------------

      A V E R A G E S   O V E R      25 S T E P S

 NSTEP =   125000   TIME(PS) =     405.000  TEMP(K) =   299.88  PRESS =     0.0
 Etot   =     -8000.9810  EKtot   =     10556.2793  EPtot      =    -18557.2603
 BOND   =      2712.9224  ANGLE   =      7094.8105  DIHED      =     11430.7886
 1-4 NB =      3229.4559  1-4 EEL =     45127.8387  VDWAALS    =     -7481.8610
 EELEC  =    -67049.5423  EGB     =    -14273.2501  RESTRAINT  =       400.9645
 EAMBER (non-restraint)  =    -18958.2248
 ESURF=       250.6126
 ------------------------------------------------------------------------------

      R M S  F L U C T U A T I O N S

 NSTEP =   125000   TIME(PS) =     405.000  TEMP(K) =     3.17  PRESS =     0.0
 Etot   =       155.7727  EKtot   =       111.7278  EPtot      =       102.6231
 BOND   =        46.5907  ANGLE   =        64.6483  DIHED      =        31.0177
 1-4 NB =        23.9408  1-4 EEL =        50.1598  VDWAALS    =        38.7616
 EELEC  =       122.1194  EGB     =        95.0700  RESTRAINT  =        12.4093
 EAMBER (non-restraint)  =        90.2138
 ESURF=         1.8154
 ------------------------------------------------------------------------------
