-------------------------------------------------------
          Amber 22 PMEMD                              2022
          -------------------------------------------------------

  [-O]verwriting output

File Assignments:

 Here is the input file:

&cntrl
   ntx = 5,

   ntwx = 5000, ntwe = 0, ntwr = 500,
   ntpr = 5000,

   ioutfm=0, ntxo=1,

   imin = 0, nstlim = 125000, dt = 0.002,

   ntt = 3, gamma_ln=1.0, temp0 = 300.0,
   nscm = 1000, ig = -1, irest = 1,

   ntc= 2, ntf = 2, cut = 1000,

   igb=8, gbsa=3, surften=0.007, ntb = 0,
   saltcon=0.,

   ntr=1, restraintmask="@CA,N,C,O",
   restraint_wt=1.0,
 /

Note: ig = -1. Setting random seed to   118780 based on wallclock time in
      microseconds.

--------------------------------------------------------------------------------
   1.  RESOURCE   USE:
--------------------------------------------------------------------------------

 NATOM  =    4492 NTYPES =      14 NBONH =    2218 MBONA  =    2336
 NTHETH =    5058 MTHETA =    3158 NPHIH =   10386 MPHIA  =    9772
 NHPARM =       0 NPARM  =       0 NNB   =   24848 NRES   =     282
 NBONA  =    2336 NTHETA =    3158 NPHIA =    9772 NUMBND =      65
 NUMANG =     152 NPTRA  =     190 NATYP =      33 NPHB   =       0
 IFBOX  =       0 NMXRS  =      24 IFCAP =       0 NEXTRA =       0
 NCOPY  =       0

 Implicit solvent radii are ArgH and AspGluO modified Bondi2 radii (mbondi3)
 Replacing prmtop screening parameters with GBn2 (igb=8) values
--------------------------------------------------------------------------------
   2.  CONTROL  DATA  FOR  THE  RUN
--------------------------------------------------------------------------------

default_name

General flags:
     imin    =       0, nmropt  =       0

Nature and format of input:
     ntx     =       5, irest   =       1, ntrx    =       1

Nature and format of output:
     ntxo    =       1, ntpr    =    5000, ntrx    =       1, ntwr    =     500
     iwrap   =       0, ntwx    =    5000, ntwv    =       0, ntwe    =       0
     ioutfm  =       0, ntwprt  =       0, idecomp =       0, rbornstat=      0

Potential function:
     ntf     =       2, ntb     =       0, igb     =       8, nsnb    =      25
     ipol    =       0, gbsa    =       3, iesp    =       0
     dielc   =   1.00000, cut     =1000.00000, intdiel =   1.00000
     saltcon =   0.00000, offset  =   0.19514, surften =   0.00700
     rdt     =   0.00000, rgbmax  =  25.00000  extdiel =  78.50000
     alpb  =        0
     gbalphaH  =   0.78844, gbbetaH   =   0.79870,  gbgammaH  =    0.43733
     gbalphaC  =   0.73376, gbbetaC   =   0.50638,  gbgammaC  =    0.20584
     gbalphaN  =   0.50336, gbbetaN   =   0.31683,  gbgammaN  =    0.19292
     gbalphaOS =   0.86781, gbbetaOS  =   0.87664,  gbgammaOS =    0.38788
     gbalphaP  =   1.00000, gbbetaP   =   0.80000,  gbgammaP  =    4.85000
     gb_alpha_hnu  =   0.53705, gb_beta_hnu   =   0.36286,  gb_gamma_hnu  =    0.11670
     gb_alpha_cnu  =   0.33167, gb_beta_cnu   =   0.19684,  gb_gamma_cnu  =    0.09342
     gb_alpha_nnu  =   0.68631, gb_beta_nnu   =   0.46319,  gb_gamma_nnu  =    0.13872
     gb_alpha_onu  =   0.60634, gb_beta_onu   =   0.46301,  gb_gamma_onu  =    0.14226
     gb_alpha_pnu  =   0.41836, gb_beta_pnu   =   0.29005,  gb_gamma_pnu  =    0.10642

Frozen or restrained atoms:
     ibelly  =       0, ntr     =       1
     restraint_wt =   1.00000

Molecular dynamics:
     nstlim  =    125000, nscm    =         0, nrespa  =         1
     t       =   0.00000, dt      =   0.00200, vlimit  =  20.00000

Langevin dynamics temperature regulation:
     ig      =  118780
     temp0   = 300.00000, tempi   =   0.00000, gamma_ln=   1.00000

SHAKE:
     ntc     =       2, jfastw  =       0
     tol     =   0.00001

    LOADING THE CONSTRAINED ATOMS AS GROUPS

   5.  REFERENCE ATOM COORDINATES

  default_name
     Mask @CA,N,C,O; matches  1128 atoms

--------------------------------------------------------------------------------
   3.  ATOMIC COORDINATES AND VELOCITIES
--------------------------------------------------------------------------------

default_name
 begin time read from input coords =   854.000 ps

 Number of triangulated 3-point waters found:        0

--------------------------------------------------------------------------------
   4.  RESULTS
 NSTEP =     5000   TIME(PS) =     864.000  TEMP(K) =   307.16  PRESS =     0.0
 Etot   =     -3227.2224  EKtot   =      3435.8788  EPtot      =     -6663.1012
 BOND   =       842.4527  ANGLE   =      2465.2152  DIHED      =      3478.7133
 1-4 NB =       990.1738  1-4 EEL =     11962.8081  VDWAALS    =     -2306.1893
 EELEC  =    -19897.9642  EGB     =     -4401.6571  RESTRAINT  =       124.4859
 EAMBER (non-restraint)  =     -6787.5871
 ESURF=        78.8604
 ------------------------------------------------------------------------------

      A V E R A G E S   O V E R      25 S T E P S

 NSTEP =   125000   TIME(PS) =    1104.000  TEMP(K) =   301.65  PRESS =     0.0
 Etot   =     -3234.3576  EKtot   =      3374.2804  EPtot      =     -6608.6380
 BOND   =       878.3727  ANGLE   =      2468.8215  DIHED      =      3481.0799
 1-4 NB =       991.1899  1-4 EEL =     11949.3774  VDWAALS    =     -2312.0421
 EELEC  =    -19896.4424  EGB     =     -4368.8207  RESTRAINT  =       119.2418
 EAMBER (non-restraint)  =     -6727.8799
 ESURF=        80.5839
 ------------------------------------------------------------------------------

      R M S  F L U C T U A T I O N S

 NSTEP =   125000   TIME(PS) =    1104.000  TEMP(K) =     3.89  PRESS =     0.0
 Etot   =        62.1122  EKtot   =        43.4633  EPtot      =        51.8157
 BOND   =        23.5809  ANGLE   =        40.6895  DIHED      =        21.6019
 1-4 NB =        11.8756  1-4 EEL =        44.5457  VDWAALS    =        18.4602
 EELEC  =        79.1688  EGB     =        66.2379  RESTRAINT  =         5.6939
 EAMBER (non-restraint)  =        46.1218
 ESURF=         1.2551
 ------------------------------------------------------------------------------
