-------------------------------------------------------
          Amber 22 PMEMD                              2022
          -------------------------------------------------------

  [-O]verwriting output

File Assignments:

 Here is the input file:

&cntrl
   ntx = 5,

   ntwx = 5000, ntwe = 0, ntwr = 500,
   ntpr = 5000,

   ioutfm=0, ntxo=1,

   imin = 0, nstlim = 125000, dt = 0.002,

   ntt = 3, gamma_ln=1.0, temp0 = 300.0,
   nscm = 1000, ig = -1, irest = 1,

   ntc= 2, ntf = 2, cut = 1000,

   igb=8, gbsa=3, surften=0.007, ntb = 0,
   saltcon=0.,

   ntr=1, restraintmask="@CA,N,C,O",
   restraint_wt=1.0,
 /

Note: ig = -1. Setting random seed to   123890 based on wallclock time in
      microseconds.

--------------------------------------------------------------------------------
   1.  RESOURCE   USE:
--------------------------------------------------------------------------------

 NATOM  =    2898 NTYPES =      14 NBONH =    1448 MBONA  =    1480
 NTHETH =    3306 MTHETA =    1986 NPHIH =    6586 MPHIA  =    6110
 NHPARM =       0 NPARM  =       0 NNB   =   15986 NRES   =     180
 NBONA  =    1480 NTHETA =    1986 NPHIA =    6110 NUMBND =      56
 NUMANG =     130 NPTRA  =     161 NATYP =      28 NPHB   =       0
 IFBOX  =       0 NMXRS  =      24 IFCAP =       0 NEXTRA =       0
 NCOPY  =       0

 Implicit solvent radii are ArgH and AspGluO modified Bondi2 radii (mbondi3)
 Replacing prmtop screening parameters with GBn2 (igb=8) values
--------------------------------------------------------------------------------
   2.  CONTROL  DATA  FOR  THE  RUN
--------------------------------------------------------------------------------

default_name

General flags:
     imin    =       0, nmropt  =       0

Nature and format of input:
     ntx     =       5, irest   =       1, ntrx    =       1

Nature and format of output:
     ntxo    =       1, ntpr    =    5000, ntrx    =       1, ntwr    =     500
     iwrap   =       0, ntwx    =    5000, ntwv    =       0, ntwe    =       0
     ioutfm  =       0, ntwprt  =       0, idecomp =       0, rbornstat=      0

Potential function:
     ntf     =       2, ntb     =       0, igb     =       8, nsnb    =      25
     ipol    =       0, gbsa    =       3, iesp    =       0
     dielc   =   1.00000, cut     =1000.00000, intdiel =   1.00000
     saltcon =   0.00000, offset  =   0.19514, surften =   0.00700
     rdt     =   0.00000, rgbmax  =  25.00000  extdiel =  78.50000
     alpb  =        0
     gbalphaH  =   0.78844, gbbetaH   =   0.79870,  gbgammaH  =    0.43733
     gbalphaC  =   0.73376, gbbetaC   =   0.50638,  gbgammaC  =    0.20584
     gbalphaN  =   0.50336, gbbetaN   =   0.31683,  gbgammaN  =    0.19292
     gbalphaOS =   0.86781, gbbetaOS  =   0.87664,  gbgammaOS =    0.38788
     gbalphaP  =   1.00000, gbbetaP   =   0.80000,  gbgammaP  =    4.85000
     gb_alpha_hnu  =   0.53705, gb_beta_hnu   =   0.36286,  gb_gamma_hnu  =    0.11670
     gb_alpha_cnu  =   0.33167, gb_beta_cnu   =   0.19684,  gb_gamma_cnu  =    0.09342
     gb_alpha_nnu  =   0.68631, gb_beta_nnu   =   0.46319,  gb_gamma_nnu  =    0.13872
     gb_alpha_onu  =   0.60634, gb_beta_onu   =   0.46301,  gb_gamma_onu  =    0.14226
     gb_alpha_pnu  =   0.41836, gb_beta_pnu   =   0.29005,  gb_gamma_pnu  =    0.10642

Frozen or restrained atoms:
     ibelly  =       0, ntr     =       1
     restraint_wt =   1.00000

Molecular dynamics:
     nstlim  =    125000, nscm    =         0, nrespa  =         1
     t       =   0.00000, dt      =   0.00200, vlimit  =  20.00000

Langevin dynamics temperature regulation:
     ig      =  123890
     temp0   = 300.00000, tempi   =   0.00000, gamma_ln=   1.00000

SHAKE:
     ntc     =       2, jfastw  =       0
     tol     =   0.00001

    LOADING THE CONSTRAINED ATOMS AS GROUPS

   5.  REFERENCE ATOM COORDINATES

  default_name
     Mask @CA,N,C,O; matches   720 atoms

--------------------------------------------------------------------------------
   3.  ATOMIC COORDINATES AND VELOCITIES
--------------------------------------------------------------------------------

default_name
 begin time read from input coords =  1000.000 ps

 Number of triangulated 3-point waters found:        0

--------------------------------------------------------------------------------
   4.  RESULTS
 NSTEP =     5000   TIME(PS) =    1010.000  TEMP(K) =   300.68  PRESS =     0.0
 Etot   =     -2562.1154  EKtot   =      2164.8102  EPtot      =     -4726.9256
 BOND   =       562.5144  ANGLE   =      1329.5667  DIHED      =      2136.3374
 1-4 NB =       660.9733  1-4 EEL =      8110.6744  VDWAALS    =     -1450.7715
 EELEC  =    -13167.5807  EGB     =     -3036.8694  RESTRAINT  =        70.7745
 EAMBER (non-restraint)  =     -4797.7001
 ESURF=        57.4551
 ------------------------------------------------------------------------------

      A V E R A G E S   O V E R      25 S T E P S

 NSTEP =   125000   TIME(PS) =    1250.000  TEMP(K) =   300.66  PRESS =     0.0
 Etot   =     -2532.4988  EKtot   =      2164.6256  EPtot      =     -4697.1244
 BOND   =       559.5738  ANGLE   =      1390.1095  DIHED      =      2135.1851
 1-4 NB =       657.4870  1-4 EEL =      8094.6272  VDWAALS    =     -1447.7132
 EELEC  =    -13257.1713  EGB     =     -2960.3401  RESTRAINT  =        72.8487
 EAMBER (non-restraint)  =     -4769.9731
 ESURF=        58.2689
 ------------------------------------------------------------------------------

      R M S  F L U C T U A T I O N S

 NSTEP =   125000   TIME(PS) =    1250.000  TEMP(K) =     5.06  PRESS =     0.0
 Etot   =        61.9198  EKtot   =        36.4265  EPtot      =        43.6341
 BOND   =        20.0754  ANGLE   =        36.6860  DIHED      =        12.3175
 1-4 NB =        11.3454  1-4 EEL =        28.9954  VDWAALS    =        10.3258
 EELEC  =        56.3706  EGB     =        48.4699  RESTRAINT  =         4.9634
 EAMBER (non-restraint)  =        38.6706
 ESURF=         1.1533
 ------------------------------------------------------------------------------
