-------------------------------------------------------
          Amber 22 PMEMD                              2022
          -------------------------------------------------------

  [-O]verwriting output

File Assignments:

 Here is the input file:

&cntrl
   ntx = 5,

   ntwx = 5000, ntwe = 0, ntwr = 500,
   ntpr = 5000,

   ioutfm=0, ntxo=1,

   imin = 0, nstlim = 125000, dt = 0.002,

   ntt = 3, gamma_ln=1.0, temp0 = 300.0,
   nscm = 1000, ig = -1, irest = 1,

   ntc= 2, ntf = 2, cut = 1000,

   igb=8, gbsa=3, surften=0.007, ntb = 0,
   saltcon=0.,

   ntr=1, restraintmask="@CA,N,C,O",
   restraint_wt=1.0,
 /

Note: ig = -1. Setting random seed to   596606 based on wallclock time in
      microseconds.

--------------------------------------------------------------------------------
   1.  RESOURCE   USE:
--------------------------------------------------------------------------------

 NATOM  =    2206 NTYPES =      14 NBONH =    1096 MBONA  =    1131
 NTHETH =    2485 MTHETA =    1539 NPHIH =    5044 MPHIA  =    4756
 NHPARM =       0 NPARM  =       0 NNB   =   12113 NRES   =     148
 NBONA  =    1131 NTHETA =    1539 NPHIA =    4756 NUMBND =      67
 NUMANG =     156 NPTRA  =     200 NATYP =      34 NPHB   =       0
 IFBOX  =       0 NMXRS  =      24 IFCAP =       0 NEXTRA =       0
 NCOPY  =       0

 Implicit solvent radii are ArgH and AspGluO modified Bondi2 radii (mbondi3)
 Replacing prmtop screening parameters with GBn2 (igb=8) values
--------------------------------------------------------------------------------
   2.  CONTROL  DATA  FOR  THE  RUN
--------------------------------------------------------------------------------

default_name

General flags:
     imin    =       0, nmropt  =       0

Nature and format of input:
     ntx     =       5, irest   =       1, ntrx    =       1

Nature and format of output:
     ntxo    =       1, ntpr    =    5000, ntrx    =       1, ntwr    =     500
     iwrap   =       0, ntwx    =    5000, ntwv    =       0, ntwe    =       0
     ioutfm  =       0, ntwprt  =       0, idecomp =       0, rbornstat=      0

Potential function:
     ntf     =       2, ntb     =       0, igb     =       8, nsnb    =      25
     ipol    =       0, gbsa    =       3, iesp    =       0
     dielc   =   1.00000, cut     =1000.00000, intdiel =   1.00000
     saltcon =   0.00000, offset  =   0.19514, surften =   0.00700
     rdt     =   0.00000, rgbmax  =  25.00000  extdiel =  78.50000
     alpb  =        0
     gbalphaH  =   0.78844, gbbetaH   =   0.79870,  gbgammaH  =    0.43733
     gbalphaC  =   0.73376, gbbetaC   =   0.50638,  gbgammaC  =    0.20584
     gbalphaN  =   0.50336, gbbetaN   =   0.31683,  gbgammaN  =    0.19292
     gbalphaOS =   0.86781, gbbetaOS  =   0.87664,  gbgammaOS =    0.38788
     gbalphaP  =   1.00000, gbbetaP   =   0.80000,  gbgammaP  =    4.85000
     gb_alpha_hnu  =   0.53705, gb_beta_hnu   =   0.36286,  gb_gamma_hnu  =    0.11670
     gb_alpha_cnu  =   0.33167, gb_beta_cnu   =   0.19684,  gb_gamma_cnu  =    0.09342
     gb_alpha_nnu  =   0.68631, gb_beta_nnu   =   0.46319,  gb_gamma_nnu  =    0.13872
     gb_alpha_onu  =   0.60634, gb_beta_onu   =   0.46301,  gb_gamma_onu  =    0.14226
     gb_alpha_pnu  =   0.41836, gb_beta_pnu   =   0.29005,  gb_gamma_pnu  =    0.10642

Frozen or restrained atoms:
     ibelly  =       0, ntr     =       1
     restraint_wt =   1.00000

Molecular dynamics:
     nstlim  =    125000, nscm    =         0, nrespa  =         1
     t       =   0.00000, dt      =   0.00200, vlimit  =  20.00000

Langevin dynamics temperature regulation:
     ig      =  596606
     temp0   = 300.00000, tempi   =   0.00000, gamma_ln=   1.00000

SHAKE:
     ntc     =       2, jfastw  =       0
     tol     =   0.00001

    LOADING THE CONSTRAINED ATOMS AS GROUPS

   5.  REFERENCE ATOM COORDINATES

  default_name
     Mask @CA,N,C,O; matches   592 atoms

--------------------------------------------------------------------------------
   3.  ATOMIC COORDINATES AND VELOCITIES
--------------------------------------------------------------------------------

default_name
 begin time read from input coords =   977.000 ps

 Number of triangulated 3-point waters found:        0

--------------------------------------------------------------------------------
   4.  RESULTS
 NSTEP =     5000   TIME(PS) =     987.000  TEMP(K) =   294.93  PRESS =     0.0
 Etot   =     -2762.9808  EKtot   =      1618.1860  EPtot      =     -4381.1668
 BOND   =       454.5394  ANGLE   =      1220.0298  DIHED      =      1796.3249
 1-4 NB =       484.9177  1-4 EEL =      3723.5899  VDWAALS    =     -1016.7578
 EELEC  =     -8704.5450  EGB     =     -2503.7869  RESTRAINT  =       106.2039
 EAMBER (non-restraint)  =     -4487.3707
 ESURF=        58.3174
 ------------------------------------------------------------------------------

      A V E R A G E S   O V E R      25 S T E P S

 NSTEP =   125000   TIME(PS) =    1227.000  TEMP(K) =   300.15  PRESS =     0.0
 Etot   =     -2747.7285  EKtot   =      1646.8371  EPtot      =     -4394.5655
 BOND   =       446.8199  ANGLE   =      1200.1970  DIHED      =      1806.9479
 1-4 NB =       484.5688  1-4 EEL =      3714.9066  VDWAALS    =     -1020.3537
 EELEC  =     -8612.7136  EGB     =     -2591.7075  RESTRAINT  =       116.9745
 EAMBER (non-restraint)  =     -4511.5400
 ESURF=        59.7945
 ------------------------------------------------------------------------------

      R M S  F L U C T U A T I O N S

 NSTEP =   125000   TIME(PS) =    1227.000  TEMP(K) =     4.10  PRESS =     0.0
 Etot   =        41.1569  EKtot   =        22.5139  EPtot      =        31.4038
 BOND   =        13.4515  ANGLE   =        26.5844  DIHED      =        13.0174
 1-4 NB =         9.5991  1-4 EEL =        26.6722  VDWAALS    =        11.8389
 EELEC  =        96.5519  EGB     =        87.0004  RESTRAINT  =         8.1161
 EAMBER (non-restraint)  =        23.2877
 ESURF=         1.3971
 ------------------------------------------------------------------------------
