-------------------------------------------------------
          Amber 22 PMEMD                              2022
          -------------------------------------------------------

  [-O]verwriting output

File Assignments:

 Here is the input file:

&cntrl
   ntx = 5,
   ntwx = 5000, ntwe = 0, ntwr = 500,
   ntpr = 5000,

   ioutfm=0, ntxo=1,

   imin = 0, nstlim = 125000, dt = 0.002,

   ntt = 3, gamma_ln=1., temp0 = 300.0,
   nscm = 1000, ig = -1, irest = 1,

   ntc= 2, ntf = 2, cut = 1000,

   igb=8, gbsa=3, surften=0.007, ntb = 0,
   saltcon=0.,

   ntr=1, restraintmask="@CA,N,C,O",
   restraint_wt=0.1,
 /

Note: ig = -1. Setting random seed to   145768 based on wallclock time in
      microseconds.

--------------------------------------------------------------------------------
   1.  RESOURCE   USE:
--------------------------------------------------------------------------------

 NATOM  =    2206 NTYPES =      14 NBONH =    1096 MBONA  =    1131
 NTHETH =    2485 MTHETA =    1539 NPHIH =    5044 MPHIA  =    4756
 NHPARM =       0 NPARM  =       0 NNB   =   12113 NRES   =     148
 NBONA  =    1131 NTHETA =    1539 NPHIA =    4756 NUMBND =      67
 NUMANG =     156 NPTRA  =     200 NATYP =      34 NPHB   =       0
 IFBOX  =       0 NMXRS  =      24 IFCAP =       0 NEXTRA =       0
 NCOPY  =       0

 Implicit solvent radii are ArgH and AspGluO modified Bondi2 radii (mbondi3)
 Replacing prmtop screening parameters with GBn2 (igb=8) values
--------------------------------------------------------------------------------
   2.  CONTROL  DATA  FOR  THE  RUN
--------------------------------------------------------------------------------

default_name

General flags:
     imin    =       0, nmropt  =       0

Nature and format of input:
     ntx     =       5, irest   =       1, ntrx    =       1

Nature and format of output:
     ntxo    =       1, ntpr    =    5000, ntrx    =       1, ntwr    =     500
     iwrap   =       0, ntwx    =    5000, ntwv    =       0, ntwe    =       0
     ioutfm  =       0, ntwprt  =       0, idecomp =       0, rbornstat=      0

Potential function:
     ntf     =       2, ntb     =       0, igb     =       8, nsnb    =      25
     ipol    =       0, gbsa    =       3, iesp    =       0
     dielc   =   1.00000, cut     =1000.00000, intdiel =   1.00000
     saltcon =   0.00000, offset  =   0.19514, surften =   0.00700
     rdt     =   0.00000, rgbmax  =  25.00000  extdiel =  78.50000
     alpb  =        0
     gbalphaH  =   0.78844, gbbetaH   =   0.79870,  gbgammaH  =    0.43733
     gbalphaC  =   0.73376, gbbetaC   =   0.50638,  gbgammaC  =    0.20584
     gbalphaN  =   0.50336, gbbetaN   =   0.31683,  gbgammaN  =    0.19292
     gbalphaOS =   0.86781, gbbetaOS  =   0.87664,  gbgammaOS =    0.38788
     gbalphaP  =   1.00000, gbbetaP   =   0.80000,  gbgammaP  =    4.85000
     gb_alpha_hnu  =   0.53705, gb_beta_hnu   =   0.36286,  gb_gamma_hnu  =    0.11670
     gb_alpha_cnu  =   0.33167, gb_beta_cnu   =   0.19684,  gb_gamma_cnu  =    0.09342
     gb_alpha_nnu  =   0.68631, gb_beta_nnu   =   0.46319,  gb_gamma_nnu  =    0.13872
     gb_alpha_onu  =   0.60634, gb_beta_onu   =   0.46301,  gb_gamma_onu  =    0.14226
     gb_alpha_pnu  =   0.41836, gb_beta_pnu   =   0.29005,  gb_gamma_pnu  =    0.10642

Frozen or restrained atoms:
     ibelly  =       0, ntr     =       1
     restraint_wt =   0.10000

Molecular dynamics:
     nstlim  =    125000, nscm    =         0, nrespa  =         1
     t       =   0.00000, dt      =   0.00200, vlimit  =  20.00000

Langevin dynamics temperature regulation:
     ig      =  145768
     temp0   = 300.00000, tempi   =   0.00000, gamma_ln=   1.00000

SHAKE:
     ntc     =       2, jfastw  =       0
     tol     =   0.00001

    LOADING THE CONSTRAINED ATOMS AS GROUPS

   5.  REFERENCE ATOM COORDINATES

  default_name
     Mask @CA,N,C,O; matches   592 atoms

--------------------------------------------------------------------------------
   3.  ATOMIC COORDINATES AND VELOCITIES
--------------------------------------------------------------------------------

default_name
 begin time read from input coords =  1227.000 ps

 Number of triangulated 3-point waters found:        0

--------------------------------------------------------------------------------
   4.  RESULTS
 NSTEP =     5000   TIME(PS) =    1237.000  TEMP(K) =   292.36  PRESS =     0.0
 Etot   =     -2842.5752  EKtot   =      1604.0760  EPtot      =     -4446.6511
 BOND   =       453.9997  ANGLE   =      1269.0581  DIHED      =      1776.1034
 1-4 NB =       472.7303  1-4 EEL =      3730.8267  VDWAALS    =      -992.3339
 EELEC  =     -8537.4583  EGB     =     -2731.8111  RESTRAINT  =        45.5529
 EAMBER (non-restraint)  =     -4492.2040
 ESURF=        66.6811
 ------------------------------------------------------------------------------

      A V E R A G E S   O V E R      25 S T E P S

 NSTEP =   125000   TIME(PS) =    1477.000  TEMP(K) =   297.85  PRESS =     0.0
 Etot   =     -2885.5908  EKtot   =      1634.2198  EPtot      =     -4519.8106
 BOND   =       449.8870  ANGLE   =      1206.8286  DIHED      =      1774.1345
 1-4 NB =       480.1126  1-4 EEL =      3695.3935  VDWAALS    =     -1023.8784
 EELEC  =     -8714.2297  EGB     =     -2505.9799  RESTRAINT  =        54.8176
 EAMBER (non-restraint)  =     -4574.6282
 ESURF=        63.1035
 ------------------------------------------------------------------------------

      R M S  F L U C T U A T I O N S

 NSTEP =   125000   TIME(PS) =    1477.000  TEMP(K) =     5.46  PRESS =     0.0
 Etot   =        43.6918  EKtot   =        29.9385  EPtot      =        36.9917
 BOND   =        16.4588  ANGLE   =        31.8404  DIHED      =        18.1040
 1-4 NB =         7.3380  1-4 EEL =        28.6851  VDWAALS    =        15.1906
 EELEC  =       114.8576  EGB     =       102.7583  RESTRAINT  =         3.6532
 EAMBER (non-restraint)  =        33.3385
 ESURF=         1.7686
 ------------------------------------------------------------------------------
