-------------------------------------------------------
          Amber 22 PMEMD                              2022
          -------------------------------------------------------

  [-O]verwriting output

File Assignments:

 Here is the input file:

&cntrl
   ntx = 5,
   ntwx = 5000, ntwe = 0, ntwr = 500,
   ntpr = 5000,

   ioutfm=0, ntxo=1,

   imin = 0, nstlim = 2500000, dt = 0.002,

   ntt = 3, gamma_ln=1., temp0 = 300.0,
   nscm = 1000, ig = -1, irest = 1,

   ntc= 2, ntf = 2, cut = 1000,

   igb=8, gbsa=3, surften=0.007, ntb = 0,
   saltcon=0.,

   ntr=1, restraintmask="@CA,N,C,O",
   restraint_wt=0.1,
 /

Note: ig = -1. Setting random seed to   139794 based on wallclock time in
      microseconds.

--------------------------------------------------------------------------------
   1.  RESOURCE   USE:
--------------------------------------------------------------------------------

 NATOM  =    2206 NTYPES =      14 NBONH =    1096 MBONA  =    1131
 NTHETH =    2485 MTHETA =    1539 NPHIH =    5044 MPHIA  =    4756
 NHPARM =       0 NPARM  =       0 NNB   =   12113 NRES   =     148
 NBONA  =    1131 NTHETA =    1539 NPHIA =    4756 NUMBND =      67
 NUMANG =     156 NPTRA  =     200 NATYP =      34 NPHB   =       0
 IFBOX  =       0 NMXRS  =      24 IFCAP =       0 NEXTRA =       0
 NCOPY  =       0

 Implicit solvent radii are ArgH and AspGluO modified Bondi2 radii (mbondi3)
 Replacing prmtop screening parameters with GBn2 (igb=8) values
--------------------------------------------------------------------------------
   2.  CONTROL  DATA  FOR  THE  RUN
--------------------------------------------------------------------------------

default_name

General flags:
     imin    =       0, nmropt  =       0

Nature and format of input:
     ntx     =       5, irest   =       1, ntrx    =       1

Nature and format of output:
     ntxo    =       1, ntpr    =    5000, ntrx    =       1, ntwr    =     500
     iwrap   =       0, ntwx    =    5000, ntwv    =       0, ntwe    =       0
     ioutfm  =       0, ntwprt  =       0, idecomp =       0, rbornstat=      0

Potential function:
     ntf     =       2, ntb     =       0, igb     =       8, nsnb    =      25
     ipol    =       0, gbsa    =       3, iesp    =       0
     dielc   =   1.00000, cut     =1000.00000, intdiel =   1.00000
     saltcon =   0.00000, offset  =   0.19514, surften =   0.00700
     rdt     =   0.00000, rgbmax  =  25.00000  extdiel =  78.50000
     alpb  =        0
     gbalphaH  =   0.78844, gbbetaH   =   0.79870,  gbgammaH  =    0.43733
     gbalphaC  =   0.73376, gbbetaC   =   0.50638,  gbgammaC  =    0.20584
     gbalphaN  =   0.50336, gbbetaN   =   0.31683,  gbgammaN  =    0.19292
     gbalphaOS =   0.86781, gbbetaOS  =   0.87664,  gbgammaOS =    0.38788
     gbalphaP  =   1.00000, gbbetaP   =   0.80000,  gbgammaP  =    4.85000
     gb_alpha_hnu  =   0.53705, gb_beta_hnu   =   0.36286,  gb_gamma_hnu  =    0.11670
     gb_alpha_cnu  =   0.33167, gb_beta_cnu   =   0.19684,  gb_gamma_cnu  =    0.09342
     gb_alpha_nnu  =   0.68631, gb_beta_nnu   =   0.46319,  gb_gamma_nnu  =    0.13872
     gb_alpha_onu  =   0.60634, gb_beta_onu   =   0.46301,  gb_gamma_onu  =    0.14226
     gb_alpha_pnu  =   0.41836, gb_beta_pnu   =   0.29005,  gb_gamma_pnu  =    0.10642

Frozen or restrained atoms:
     ibelly  =       0, ntr     =       1
     restraint_wt =   0.10000

Molecular dynamics:
     nstlim  =   2500000, nscm    =         0, nrespa  =         1
     t       =   0.00000, dt      =   0.00200, vlimit  =  20.00000

Langevin dynamics temperature regulation:
     ig      =  139794
     temp0   = 300.00000, tempi   =   0.00000, gamma_ln=   1.00000

SHAKE:
     ntc     =       2, jfastw  =       0
     tol     =   0.00001

    LOADING THE CONSTRAINED ATOMS AS GROUPS

   5.  REFERENCE ATOM COORDINATES

  default_name
     Mask @CA,N,C,O; matches   592 atoms

--------------------------------------------------------------------------------
   3.  ATOMIC COORDINATES AND VELOCITIES
--------------------------------------------------------------------------------

default_name
 begin time read from input coords =  1477.000 ps

 Number of triangulated 3-point waters found:        0

--------------------------------------------------------------------------------
   4.  RESULTS
 NSTEP =     5000   TIME(PS) =    1487.000  TEMP(K) =   302.11  PRESS =     0.0
 Etot   =     -2858.6538  EKtot   =      1657.5885  EPtot      =     -4516.2423
 BOND   =       471.8188  ANGLE   =      1215.3731  DIHED      =      1795.4628
 1-4 NB =       478.2408  1-4 EEL =      3691.9176  VDWAALS    =     -1011.2835
 EELEC  =     -8851.6377  EGB     =     -2402.1460  RESTRAINT  =        30.2372
 EAMBER (non-restraint)  =     -4546.4795
 ESURF=        65.7746
 ------------------------------------------------------------------------------

      A V E R A G E S   O V E R     500 S T E P S

 NSTEP =  2500000   TIME(PS) =    6477.000  TEMP(K) =   300.17  PRESS =     0.0
 Etot   =     -2943.5027  EKtot   =      1646.8992  EPtot      =     -4590.4019
 BOND   =       455.4639  ANGLE   =      1199.0883  DIHED      =      1758.6924
 1-4 NB =       478.2050  1-4 EEL =      3684.7091  VDWAALS    =     -1025.2557
 EELEC  =     -8759.5403  EGB     =     -2475.4478  RESTRAINT  =        31.6331
 EAMBER (non-restraint)  =     -4622.0350
 ESURF=        62.0502
 ------------------------------------------------------------------------------

      R M S  F L U C T U A T I O N S

 NSTEP =  2500000   TIME(PS) =    6477.000  TEMP(K) =     5.51  PRESS =     0.0
 Etot   =        47.4640  EKtot   =        30.2363  EPtot      =        34.8804
 BOND   =        18.3873  ANGLE   =        26.8421  DIHED      =        15.5659
 1-4 NB =         9.5688  1-4 EEL =        29.7160  VDWAALS    =        13.9357
 EELEC  =        82.0913  EGB     =        77.7264  RESTRAINT  =         4.0393
 EAMBER (non-restraint)  =        30.8411
 ESURF=         1.7436
 ------------------------------------------------------------------------------
