-------------------------------------------------------
          Amber 22 PMEMD                              2022
          -------------------------------------------------------

  [-O]verwriting output

File Assignments:

 Here is the input file:

&cntrl
   ntx = 5,

   ntwx = 5000, ntwe = 0, ntwr = 500,
   ntpr = 5000,

   ioutfm=0, ntxo=1,

   imin = 0, nstlim = 125000, dt = 0.002,

   ntt = 3, gamma_ln=1.0, temp0 = 300.0,
   nscm = 1000, ig = -1, irest = 1,

   ntc= 2, ntf = 2, cut = 1000,

   igb=8, gbsa=3, surften=0.007, ntb = 0,
   saltcon=0.,

   ntr=1, restraintmask="@CA,N,C,O",
   restraint_wt=1.0,
 /

Note: ig = -1. Setting random seed to   522278 based on wallclock time in
      microseconds.

--------------------------------------------------------------------------------
   1.  RESOURCE   USE:
--------------------------------------------------------------------------------

 NATOM  =    1256 NTYPES =      14 NBONH =     637 MBONA  =     628
 NTHETH =    1437 MTHETA =     844 NPHIH =    2959 MPHIA  =    2572
 NHPARM =       0 NPARM  =       0 NNB   =    6906 NRES   =      76
 NBONA  =     628 NTHETA =     844 NPHIA =    2572 NUMBND =      63
 NUMANG =     147 NPTRA  =     181 NATYP =      32 NPHB   =       0
 IFBOX  =       0 NMXRS  =      25 IFCAP =       0 NEXTRA =       0
 NCOPY  =       0

 Implicit solvent radii are ArgH and AspGluO modified Bondi2 radii (mbondi3)
 Replacing prmtop screening parameters with GBn2 (igb=8) values
--------------------------------------------------------------------------------
   2.  CONTROL  DATA  FOR  THE  RUN
--------------------------------------------------------------------------------

default_name

General flags:
     imin    =       0, nmropt  =       0

Nature and format of input:
     ntx     =       5, irest   =       1, ntrx    =       1

Nature and format of output:
     ntxo    =       1, ntpr    =    5000, ntrx    =       1, ntwr    =     500
     iwrap   =       0, ntwx    =    5000, ntwv    =       0, ntwe    =       0
     ioutfm  =       0, ntwprt  =       0, idecomp =       0, rbornstat=      0

Potential function:
     ntf     =       2, ntb     =       0, igb     =       8, nsnb    =      25
     ipol    =       0, gbsa    =       3, iesp    =       0
     dielc   =   1.00000, cut     =1000.00000, intdiel =   1.00000
     saltcon =   0.00000, offset  =   0.19514, surften =   0.00700
     rdt     =   0.00000, rgbmax  =  25.00000  extdiel =  78.50000
     alpb  =        0
     gbalphaH  =   0.78844, gbbetaH   =   0.79870,  gbgammaH  =    0.43733
     gbalphaC  =   0.73376, gbbetaC   =   0.50638,  gbgammaC  =    0.20584
     gbalphaN  =   0.50336, gbbetaN   =   0.31683,  gbgammaN  =    0.19292
     gbalphaOS =   0.86781, gbbetaOS  =   0.87664,  gbgammaOS =    0.38788
     gbalphaP  =   1.00000, gbbetaP   =   0.80000,  gbgammaP  =    4.85000
     gb_alpha_hnu  =   0.53705, gb_beta_hnu   =   0.36286,  gb_gamma_hnu  =    0.11670
     gb_alpha_cnu  =   0.33167, gb_beta_cnu   =   0.19684,  gb_gamma_cnu  =    0.09342
     gb_alpha_nnu  =   0.68631, gb_beta_nnu   =   0.46319,  gb_gamma_nnu  =    0.13872
     gb_alpha_onu  =   0.60634, gb_beta_onu   =   0.46301,  gb_gamma_onu  =    0.14226
     gb_alpha_pnu  =   0.41836, gb_beta_pnu   =   0.29005,  gb_gamma_pnu  =    0.10642

Frozen or restrained atoms:
     ibelly  =       0, ntr     =       1
     restraint_wt =   1.00000

Molecular dynamics:
     nstlim  =    125000, nscm    =         0, nrespa  =         1
     t       =   0.00000, dt      =   0.00200, vlimit  =  20.00000

Langevin dynamics temperature regulation:
     ig      =  522278
     temp0   = 300.00000, tempi   =   0.00000, gamma_ln=   1.00000

SHAKE:
     ntc     =       2, jfastw  =       0
     tol     =   0.00001

    LOADING THE CONSTRAINED ATOMS AS GROUPS

   5.  REFERENCE ATOM COORDINATES

  default_name
     Mask @CA,N,C,O; matches   304 atoms

--------------------------------------------------------------------------------
   3.  ATOMIC COORDINATES AND VELOCITIES
--------------------------------------------------------------------------------

default_name
 begin time read from input coords =   719.000 ps

 Number of triangulated 3-point waters found:        0

--------------------------------------------------------------------------------
   4.  RESULTS
 NSTEP =     5000   TIME(PS) =     729.000  TEMP(K) =   292.96  PRESS =     0.0
 Etot   =     -1905.0961  EKtot   =       911.3964  EPtot      =     -2816.4924
 BOND   =       236.5306  ANGLE   =       616.8640  DIHED      =       917.1836
 1-4 NB =       254.3979  1-4 EEL =      1927.7383  VDWAALS    =      -548.0423
 EELEC  =     -4231.2286  EGB     =     -2073.2069  RESTRAINT  =        45.5416
 EAMBER (non-restraint)  =     -2862.0340
 ESURF=        37.7293
 ------------------------------------------------------------------------------

      A V E R A G E S   O V E R      25 S T E P S

 NSTEP =   125000   TIME(PS) =     969.000  TEMP(K) =   299.22  PRESS =     0.0
 Etot   =     -1843.8700  EKtot   =       930.8557  EPtot      =     -2774.7257
 BOND   =       246.8914  ANGLE   =       622.8874  DIHED      =       917.5662
 1-4 NB =       261.3711  1-4 EEL =      1912.0579  VDWAALS    =      -542.4061
 EELEC  =     -4235.2949  EGB     =     -2054.0686  RESTRAINT  =        58.9779
 EAMBER (non-restraint)  =     -2833.7036
 ESURF=        37.2921
 ------------------------------------------------------------------------------

      R M S  F L U C T U A T I O N S

 NSTEP =   125000   TIME(PS) =     969.000  TEMP(K) =     7.36  PRESS =     0.0
 Etot   =        42.7455  EKtot   =        22.8900  EPtot      =        32.4439
 BOND   =        16.0558  ANGLE   =        17.1355  DIHED      =        11.4186
 1-4 NB =         7.0138  1-4 EEL =        26.3851  VDWAALS    =         8.1418
 EELEC  =        51.5829  EGB     =        44.1451  RESTRAINT  =         5.4013
 EAMBER (non-restraint)  =        27.0426
 ESURF=         0.9078
 ------------------------------------------------------------------------------
