-------------------------------------------------------
          Amber 22 PMEMD                              2022
          -------------------------------------------------------

  [-O]verwriting output

File Assignments:

 Here is the input file:

&cntrl
   ntx = 5,
   ntwx = 5000, ntwe = 0, ntwr = 500,
   ntpr = 5000,

   ioutfm=0, ntxo=1,

   imin = 0, nstlim = 2500000, dt = 0.002,

   ntt = 3, gamma_ln=1., temp0 = 300.0,
   nscm = 1000, ig = -1, irest = 1,

   ntc= 2, ntf = 2, cut = 1000,

   igb=8, gbsa=3, surften=0.007, ntb = 0,
   saltcon=0.,

   ntr=1, restraintmask="@CA,N,C,O",
   restraint_wt=0.1,
 /

Note: ig = -1. Setting random seed to   557050 based on wallclock time in
      microseconds.

--------------------------------------------------------------------------------
   1.  RESOURCE   USE:
--------------------------------------------------------------------------------

 NATOM  =    1911 NTYPES =      14 NBONH =     941 MBONA  =     991
 NTHETH =    2166 MTHETA =    1352 NPHIH =    4330 MPHIA  =    4367
 NHPARM =       0 NPARM  =       0 NNB   =   10637 NRES   =     123
 NBONA  =     991 NTHETA =    1352 NPHIA =    4367 NUMBND =      67
 NUMANG =     154 NPTRA  =     195 NATYP =      34 NPHB   =       0
 IFBOX  =       0 NMXRS  =      24 IFCAP =       0 NEXTRA =       0
 NCOPY  =       0

 Implicit solvent radii are ArgH and AspGluO modified Bondi2 radii (mbondi3)
 Replacing prmtop screening parameters with GBn2 (igb=8) values
--------------------------------------------------------------------------------
   2.  CONTROL  DATA  FOR  THE  RUN
--------------------------------------------------------------------------------

default_name

General flags:
     imin    =       0, nmropt  =       0

Nature and format of input:
     ntx     =       5, irest   =       1, ntrx    =       1

Nature and format of output:
     ntxo    =       1, ntpr    =    5000, ntrx    =       1, ntwr    =     500
     iwrap   =       0, ntwx    =    5000, ntwv    =       0, ntwe    =       0
     ioutfm  =       0, ntwprt  =       0, idecomp =       0, rbornstat=      0

Potential function:
     ntf     =       2, ntb     =       0, igb     =       8, nsnb    =      25
     ipol    =       0, gbsa    =       3, iesp    =       0
     dielc   =   1.00000, cut     =1000.00000, intdiel =   1.00000
     saltcon =   0.00000, offset  =   0.19514, surften =   0.00700
     rdt     =   0.00000, rgbmax  =  25.00000  extdiel =  78.50000
     alpb  =        0
     gbalphaH  =   0.78844, gbbetaH   =   0.79870,  gbgammaH  =    0.43733
     gbalphaC  =   0.73376, gbbetaC   =   0.50638,  gbgammaC  =    0.20584
     gbalphaN  =   0.50336, gbbetaN   =   0.31683,  gbgammaN  =    0.19292
     gbalphaOS =   0.86781, gbbetaOS  =   0.87664,  gbgammaOS =    0.38788
     gbalphaP  =   1.00000, gbbetaP   =   0.80000,  gbgammaP  =    4.85000
     gb_alpha_hnu  =   0.53705, gb_beta_hnu   =   0.36286,  gb_gamma_hnu  =    0.11670
     gb_alpha_cnu  =   0.33167, gb_beta_cnu   =   0.19684,  gb_gamma_cnu  =    0.09342
     gb_alpha_nnu  =   0.68631, gb_beta_nnu   =   0.46319,  gb_gamma_nnu  =    0.13872
     gb_alpha_onu  =   0.60634, gb_beta_onu   =   0.46301,  gb_gamma_onu  =    0.14226
     gb_alpha_pnu  =   0.41836, gb_beta_pnu   =   0.29005,  gb_gamma_pnu  =    0.10642

Frozen or restrained atoms:
     ibelly  =       0, ntr     =       1
     restraint_wt =   0.10000

Molecular dynamics:
     nstlim  =   2500000, nscm    =         0, nrespa  =         1
     t       =   0.00000, dt      =   0.00200, vlimit  =  20.00000

Langevin dynamics temperature regulation:
     ig      =  557050
     temp0   = 300.00000, tempi   =   0.00000, gamma_ln=   1.00000

SHAKE:
     ntc     =       2, jfastw  =       0
     tol     =   0.00001

    LOADING THE CONSTRAINED ATOMS AS GROUPS

   5.  REFERENCE ATOM COORDINATES

  default_name
     Mask @CA,N,C,O; matches   492 atoms

--------------------------------------------------------------------------------
   3.  ATOMIC COORDINATES AND VELOCITIES
--------------------------------------------------------------------------------

default_name
 begin time read from input coords =  1500.000 ps

 Number of triangulated 3-point waters found:        0

--------------------------------------------------------------------------------
   4.  RESULTS
 NSTEP =     5000   TIME(PS) =    1510.000  TEMP(K) =   293.12  PRESS =     0.0
 Etot   =     -1065.4570  EKtot   =      1395.6401  EPtot      =     -2461.0971
 BOND   =       407.8376  ANGLE   =      1037.0849  DIHED      =      1616.3195
 1-4 NB =       409.2731  1-4 EEL =      5861.6791  VDWAALS    =      -762.3772
 EELEC  =     -6311.5475  EGB     =     -4813.9095  RESTRAINT  =        28.0516
 EAMBER (non-restraint)  =     -2489.1487
 ESURF=        66.4914
 ------------------------------------------------------------------------------

      A V E R A G E S   O V E R     500 S T E P S

 NSTEP =  2500000   TIME(PS) =    6500.000  TEMP(K) =   300.12  PRESS =     0.0
 Etot   =     -1082.5723  EKtot   =      1428.9545  EPtot      =     -2511.5268
 BOND   =       383.2189  ANGLE   =      1045.4026  DIHED      =      1601.4196
 1-4 NB =       413.8532  1-4 EEL =      5876.9256  VDWAALS    =      -775.4289
 EELEC  =     -6513.1213  EGB     =     -4641.0922  RESTRAINT  =        32.2781
 EAMBER (non-restraint)  =     -2543.8049
 ESURF=        65.0176
 ------------------------------------------------------------------------------

      R M S  F L U C T U A T I O N S

 NSTEP =  2500000   TIME(PS) =    6500.000  TEMP(K) =     6.12  PRESS =     0.0
 Etot   =        43.1679  EKtot   =        29.1219  EPtot      =        31.4165
 BOND   =        16.9108  ANGLE   =        23.9880  DIHED      =        15.4773
 1-4 NB =         8.7895  1-4 EEL =        34.5663  VDWAALS    =        12.3537
 EELEC  =        87.2208  EGB     =        73.8129  RESTRAINT  =         4.3768
 EAMBER (non-restraint)  =        27.0397
 ESURF=         1.3587
 ------------------------------------------------------------------------------
