-------------------------------------------------------
          Amber 22 PMEMD                              2022
          -------------------------------------------------------

  [-O]verwriting output

File Assignments:

 Here is the input file:

&cntrl
   ntx = 5,
   ntwx = 5000, ntwe = 0, ntwr = 500,
   ntpr = 5000,

   ioutfm=0, ntxo=1,

   imin = 0, nstlim = 125000, dt = 0.002,

   ntt = 3, gamma_ln=1., temp0 = 300.0,
   nscm = 1000, ig = -1, irest = 1,

   ntc= 2, ntf = 2, cut = 1000,

   igb=8, gbsa=3, surften=0.007, ntb = 0,
   saltcon=0.,

   ntr=1, restraintmask="@CA,N,C,O",
   restraint_wt=0.1,
 /

Note: ig = -1. Setting random seed to    23898 based on wallclock time in
      microseconds.

--------------------------------------------------------------------------------
   1.  RESOURCE   USE:
--------------------------------------------------------------------------------

 NATOM  =    1576 NTYPES =      14 NBONH =     774 MBONA  =     824
 NTHETH =    1759 MTHETA =    1107 NPHIH =    3580 MPHIA  =    3368
 NHPARM =       0 NPARM  =       0 NNB   =    8654 NRES   =      94
 NBONA  =     824 NTHETA =    1107 NPHIA =    3368 NUMBND =      64
 NUMANG =     152 NPTRA  =     190 NATYP =      32 NPHB   =       0
 IFBOX  =       0 NMXRS  =      24 IFCAP =       0 NEXTRA =       0
 NCOPY  =       0

 Implicit solvent radii are ArgH and AspGluO modified Bondi2 radii (mbondi3)
 Replacing prmtop screening parameters with GBn2 (igb=8) values
--------------------------------------------------------------------------------
   2.  CONTROL  DATA  FOR  THE  RUN
--------------------------------------------------------------------------------

default_name

General flags:
     imin    =       0, nmropt  =       0

Nature and format of input:
     ntx     =       5, irest   =       1, ntrx    =       1

Nature and format of output:
     ntxo    =       1, ntpr    =    5000, ntrx    =       1, ntwr    =     500
     iwrap   =       0, ntwx    =    5000, ntwv    =       0, ntwe    =       0
     ioutfm  =       0, ntwprt  =       0, idecomp =       0, rbornstat=      0

Potential function:
     ntf     =       2, ntb     =       0, igb     =       8, nsnb    =      25
     ipol    =       0, gbsa    =       3, iesp    =       0
     dielc   =   1.00000, cut     =1000.00000, intdiel =   1.00000
     saltcon =   0.00000, offset  =   0.19514, surften =   0.00700
     rdt     =   0.00000, rgbmax  =  25.00000  extdiel =  78.50000
     alpb  =        0
     gbalphaH  =   0.78844, gbbetaH   =   0.79870,  gbgammaH  =    0.43733
     gbalphaC  =   0.73376, gbbetaC   =   0.50638,  gbgammaC  =    0.20584
     gbalphaN  =   0.50336, gbbetaN   =   0.31683,  gbgammaN  =    0.19292
     gbalphaOS =   0.86781, gbbetaOS  =   0.87664,  gbgammaOS =    0.38788
     gbalphaP  =   1.00000, gbbetaP   =   0.80000,  gbgammaP  =    4.85000
     gb_alpha_hnu  =   0.53705, gb_beta_hnu   =   0.36286,  gb_gamma_hnu  =    0.11670
     gb_alpha_cnu  =   0.33167, gb_beta_cnu   =   0.19684,  gb_gamma_cnu  =    0.09342
     gb_alpha_nnu  =   0.68631, gb_beta_nnu   =   0.46319,  gb_gamma_nnu  =    0.13872
     gb_alpha_onu  =   0.60634, gb_beta_onu   =   0.46301,  gb_gamma_onu  =    0.14226
     gb_alpha_pnu  =   0.41836, gb_beta_pnu   =   0.29005,  gb_gamma_pnu  =    0.10642

Frozen or restrained atoms:
     ibelly  =       0, ntr     =       1
     restraint_wt =   0.10000

Molecular dynamics:
     nstlim  =    125000, nscm    =         0, nrespa  =         1
     t       =   0.00000, dt      =   0.00200, vlimit  =  20.00000

Langevin dynamics temperature regulation:
     ig      =   23898
     temp0   = 300.00000, tempi   =   0.00000, gamma_ln=   1.00000

SHAKE:
     ntc     =       2, jfastw  =       0
     tol     =   0.00001

    LOADING THE CONSTRAINED ATOMS AS GROUPS

   5.  REFERENCE ATOM COORDINATES

  default_name
     Mask @CA,N,C,O; matches   376 atoms

--------------------------------------------------------------------------------
   3.  ATOMIC COORDINATES AND VELOCITIES
--------------------------------------------------------------------------------

default_name
 begin time read from input coords =  1250.000 ps

 Number of triangulated 3-point waters found:        0

--------------------------------------------------------------------------------
   4.  RESULTS
 NSTEP =     5000   TIME(PS) =    1260.000  TEMP(K) =   297.15  PRESS =     0.0
 Etot   =     -1557.1876  EKtot   =      1167.3910  EPtot      =     -2724.5786
 BOND   =       330.0363  ANGLE   =       844.8080  DIHED      =      1227.7757
 1-4 NB =       347.6605  1-4 EEL =      3662.0978  VDWAALS    =      -769.4934
 EELEC  =     -6628.5669  EGB     =     -1792.0399  RESTRAINT  =        16.3056
 EAMBER (non-restraint)  =     -2740.8842
 ESURF=        36.8379
 ------------------------------------------------------------------------------

      A V E R A G E S   O V E R      25 S T E P S

 NSTEP =   125000   TIME(PS) =    1500.000  TEMP(K) =   299.06  PRESS =     0.0
 Etot   =     -1587.3589  EKtot   =      1174.9217  EPtot      =     -2762.2806
 BOND   =       313.0496  ANGLE   =       831.8906  DIHED      =      1240.9556
 1-4 NB =       356.8106  1-4 EEL =      3664.4020  VDWAALS    =      -778.8080
 EELEC  =     -6635.0193  EGB     =     -1807.8953  RESTRAINT  =        15.5968
 EAMBER (non-restraint)  =     -2777.8774
 ESURF=        36.7369
 ------------------------------------------------------------------------------

      R M S  F L U C T U A T I O N S

 NSTEP =   125000   TIME(PS) =    1500.000  TEMP(K) =     6.64  PRESS =     0.0
 Etot   =        34.6664  EKtot   =        26.1020  EPtot      =        25.4566
 BOND   =        12.8630  ANGLE   =        22.1058  DIHED      =        10.5398
 1-4 NB =         7.1895  1-4 EEL =        17.0901  VDWAALS    =        12.7340
 EELEC  =        49.5404  EGB     =        44.7645  RESTRAINT  =         2.7850
 EAMBER (non-restraint)  =        22.6716
 ESURF=         1.4600
 ------------------------------------------------------------------------------
