-------------------------------------------------------
          Amber 22 PMEMD                              2022
          -------------------------------------------------------

  [-O]verwriting output

File Assignments:

 Here is the input file:

&cntrl
   ntx = 5,
   ntwx = 5000, ntwe = 0, ntwr = 500,
   ntpr = 5000,

   ioutfm=0, ntxo=1,

   imin = 0, nstlim = 125000, dt = 0.002,

   ntt = 3, gamma_ln=1., temp0 = 300.0,
   nscm = 1000, ig = -1, irest = 1,

   ntc= 2, ntf = 2, cut = 1000,

   igb=8, gbsa=3, surften=0.007, ntb = 0,
   saltcon=0.,

   ntr=1, restraintmask="@CA,N,C,O",
   restraint_wt=0.1,
 /

Note: ig = -1. Setting random seed to   123234 based on wallclock time in
      microseconds.

--------------------------------------------------------------------------------
   1.  RESOURCE   USE:
--------------------------------------------------------------------------------

 NATOM  =    1308 NTYPES =      14 NBONH =     635 MBONA  =     686
 NTHETH =    1455 MTHETA =     928 NPHIH =    2967 MPHIA  =    2985
 NHPARM =       0 NPARM  =       0 NNB   =    7216 NRES   =      86
 NBONA  =     686 NTHETA =     928 NPHIA =    2985 NUMBND =      67
 NUMANG =     154 NPTRA  =     195 NATYP =      34 NPHB   =       0
 IFBOX  =       0 NMXRS  =      24 IFCAP =       0 NEXTRA =       0
 NCOPY  =       0

 Implicit solvent radii are ArgH and AspGluO modified Bondi2 radii (mbondi3)
 Replacing prmtop screening parameters with GBn2 (igb=8) values
--------------------------------------------------------------------------------
   2.  CONTROL  DATA  FOR  THE  RUN
--------------------------------------------------------------------------------

default_name

General flags:
     imin    =       0, nmropt  =       0

Nature and format of input:
     ntx     =       5, irest   =       1, ntrx    =       1

Nature and format of output:
     ntxo    =       1, ntpr    =    5000, ntrx    =       1, ntwr    =     500
     iwrap   =       0, ntwx    =    5000, ntwv    =       0, ntwe    =       0
     ioutfm  =       0, ntwprt  =       0, idecomp =       0, rbornstat=      0

Potential function:
     ntf     =       2, ntb     =       0, igb     =       8, nsnb    =      25
     ipol    =       0, gbsa    =       3, iesp    =       0
     dielc   =   1.00000, cut     =1000.00000, intdiel =   1.00000
     saltcon =   0.00000, offset  =   0.19514, surften =   0.00700
     rdt     =   0.00000, rgbmax  =  25.00000  extdiel =  78.50000
     alpb  =        0
     gbalphaH  =   0.78844, gbbetaH   =   0.79870,  gbgammaH  =    0.43733
     gbalphaC  =   0.73376, gbbetaC   =   0.50638,  gbgammaC  =    0.20584
     gbalphaN  =   0.50336, gbbetaN   =   0.31683,  gbgammaN  =    0.19292
     gbalphaOS =   0.86781, gbbetaOS  =   0.87664,  gbgammaOS =    0.38788
     gbalphaP  =   1.00000, gbbetaP   =   0.80000,  gbgammaP  =    4.85000
     gb_alpha_hnu  =   0.53705, gb_beta_hnu   =   0.36286,  gb_gamma_hnu  =    0.11670
     gb_alpha_cnu  =   0.33167, gb_beta_cnu   =   0.19684,  gb_gamma_cnu  =    0.09342
     gb_alpha_nnu  =   0.68631, gb_beta_nnu   =   0.46319,  gb_gamma_nnu  =    0.13872
     gb_alpha_onu  =   0.60634, gb_beta_onu   =   0.46301,  gb_gamma_onu  =    0.14226
     gb_alpha_pnu  =   0.41836, gb_beta_pnu   =   0.29005,  gb_gamma_pnu  =    0.10642

Frozen or restrained atoms:
     ibelly  =       0, ntr     =       1
     restraint_wt =   0.10000

Molecular dynamics:
     nstlim  =    125000, nscm    =         0, nrespa  =         1
     t       =   0.00000, dt      =   0.00200, vlimit  =  20.00000

Langevin dynamics temperature regulation:
     ig      =  123234
     temp0   = 300.00000, tempi   =   0.00000, gamma_ln=   1.00000

SHAKE:
     ntc     =       2, jfastw  =       0
     tol     =   0.00001

    LOADING THE CONSTRAINED ATOMS AS GROUPS

   5.  REFERENCE ATOM COORDINATES

  default_name
     Mask @CA,N,C,O; matches   344 atoms

--------------------------------------------------------------------------------
   3.  ATOMIC COORDINATES AND VELOCITIES
--------------------------------------------------------------------------------

default_name
 begin time read from input coords =  1250.000 ps

 Number of triangulated 3-point waters found:        0

--------------------------------------------------------------------------------
   4.  RESULTS
 NSTEP =     5000   TIME(PS) =    1260.000  TEMP(K) =   298.64  PRESS =     0.0
 Etot   =      -812.8603  EKtot   =       975.9393  EPtot      =     -1788.7996
 BOND   =       255.3895  ANGLE   =       701.6089  DIHED      =      1100.0195
 1-4 NB =       309.9648  1-4 EEL =      4446.9264  VDWAALS    =      -620.9813
 EELEC  =     -5481.6663  EGB     =     -2554.0190  RESTRAINT  =        16.5980
 EAMBER (non-restraint)  =     -1805.3976
 ESURF=        37.3599
 ------------------------------------------------------------------------------

      A V E R A G E S   O V E R      25 S T E P S

 NSTEP =   125000   TIME(PS) =    1500.000  TEMP(K) =   301.13  PRESS =     0.0
 Etot   =      -813.3390  EKtot   =       984.0794  EPtot      =     -1797.4184
 BOND   =       264.4459  ANGLE   =       680.8161  DIHED      =      1104.5614
 1-4 NB =       301.3243  1-4 EEL =      4446.9126  VDWAALS    =      -600.1836
 EELEC  =     -5572.9156  EGB     =     -2482.3707  RESTRAINT  =        21.8127
 EAMBER (non-restraint)  =     -1819.2312
 ESURF=        38.1784
 ------------------------------------------------------------------------------

      R M S  F L U C T U A T I O N S

 NSTEP =   125000   TIME(PS) =    1500.000  TEMP(K) =     6.78  PRESS =     0.0
 Etot   =        34.1453  EKtot   =        22.1502  EPtot      =        26.6879
 BOND   =        14.9625  ANGLE   =        19.4156  DIHED      =        12.6635
 1-4 NB =         6.7769  1-4 EEL =        20.4015  VDWAALS    =        12.1286
 EELEC  =        73.5673  EGB     =        62.3050  RESTRAINT  =         3.3630
 EAMBER (non-restraint)  =        23.3249
 ESURF=         1.4015
 ------------------------------------------------------------------------------
